14

C          1.09885        0.03214       -0.06027
N          0.59573       -1.29660        0.42658
C          1.09884       -1.54834        1.81914
C         -0.90617       -1.30063        0.42318
O          1.05273       -2.28590       -0.40537
H          0.72481        0.80635        0.61433
H          0.72406        0.17434       -1.07754
H          2.19153       -0.00696       -0.05584
H          0.72481       -0.75094        2.46616
H          0.72405       -2.52614        2.13370
H          2.19152       -1.55067        1.77986
H         -1.23431       -1.12744       -0.60533
H         -1.23432       -2.28419        0.77022
H         -1.25078       -0.50687        1.09069
