41

C          1.11206       -0.19056       -0.03849
C          0.49088        0.56908        0.87279
C         -0.95933        0.84780        0.86786
O         -1.42011        1.85364        1.38269
O         -1.65302       -0.15569        0.27859
C         -3.06932        0.04548        0.08745
C         -3.93971       -0.74733        1.09956
C         -3.62750       -0.32129        2.57137
C         -4.08703        1.07402        2.98064
C         -5.44590       -0.48825        0.80426
O         -5.90540       -0.96032       -0.47463
C         -5.93304       -0.07225       -1.49569
O         -5.51512        1.07283       -1.47205
C         -6.48315       -0.68555       -2.72243
C         -7.34941       -1.70704       -2.72863
C         -3.58990       -2.26134        1.00967
O         -3.90002       -2.84807       -0.26364
C         -4.93639       -3.72445       -0.27412
O         -5.63891       -4.03372        0.67744
C         -5.17286       -4.28582       -1.62095
C         -4.40023       -4.07877       -2.69480
H          0.57437       -0.67104       -0.85007
H          2.18824       -0.32474       -0.00123
H          1.04901        1.08395        1.64696
H         -3.31600        1.11327        0.09849
H         -3.26587       -0.30468       -0.93118
H         -4.10647       -1.02880        3.26186
H         -2.55181       -0.41114        2.76311
H         -5.17379        1.10732        3.10703
H         -3.64236        1.34339        3.94436
H         -3.80589        1.83853        2.25392
H         -6.05257       -1.01500        1.55094
H         -5.69437        0.57449        0.90833
H         -6.16825       -0.21354       -3.64621
H         -7.73169       -2.10043       -3.66485
H         -7.70610       -2.16500       -1.81054
H         -2.51309       -2.40702        1.15888
H         -4.07096       -2.80999        1.82877
H         -6.06023       -4.90638       -1.69044
H         -4.65696       -4.52784       -3.64874
H         -3.50579       -3.46564       -2.65381
