19

O          1.12176        0.23270       -0.04200
C          2.33297        0.09702       -0.06061
O          3.01897       -0.63315        0.83586
C          3.17667        0.76937       -1.07498
C          2.78338        2.03094       -1.52957
C          3.52000        2.66165       -2.54643
N          3.08777        3.98734       -2.94362
O          1.92699        4.09530       -3.35499
O          3.89172        4.91179       -2.77824
C          4.63359        2.06148       -3.14814
Cl         5.39965        2.77888       -4.52591
C          5.02050        0.80839       -2.65164
N          6.19959        0.12385       -3.16345
O          6.07869       -1.08360       -3.40579
O          7.25127        0.76858       -3.22987
C          4.30030        0.15215       -1.63053
H          3.98874       -0.53928        0.84381
H          1.90010        2.51137       -1.10444
H          4.59530       -0.84772       -1.31250
