13

O          0.06735        1.82905        0.00115
C          0.02818        0.45767        0.00001
C         -1.19490       -0.22097        0.00232
Cl        -2.68085        0.65706        0.00707
C         -1.23084       -1.61636        0.00076
C         -0.03847       -2.34112       -0.00338
C          1.18559       -1.66885       -0.00556
C          1.21995       -0.27127       -0.00368
Cl         2.75705        0.51342       -0.00601
H         -0.85254        2.15220        0.00238
H         -2.18166       -2.14376        0.00266
H         -0.06128       -3.42861       -0.00487
H          2.11179       -2.23898       -0.00876
