14

N          1.10890       -0.10806        0.00140
S          0.59698       -1.50988       -0.78084
O          1.34503       -2.57946       -0.16442
O         -0.84400       -1.46060       -0.81297
C          1.14274       -1.38158       -2.45772
C          1.44067       -0.29001       -3.25540
C          1.87113       -0.67598       -4.55966
C          1.86785       -2.04035       -4.69275
Cl         2.32784       -2.93347       -6.08495
S          1.34422       -2.85553       -3.30682
H          0.40355        0.15337        0.69294
H          2.01267       -0.29024        0.44200
H          1.35717        0.73338       -2.90817
H          2.16547        0.00895       -5.34520
