40

C          0.95934        0.05121       -0.07887
C          0.98496       -1.47399       -0.08551
N          1.22415       -2.02516        1.24988
C          0.02761       -2.37505        2.02437
C          0.00712       -3.81243        2.51600
C          2.52074       -1.84047        1.76706
O          3.44031       -1.45419        1.03795
C          2.80619       -2.04971        3.25378
C          1.96712       -1.19158        4.21444
C          1.10063       -1.74337        5.17636
C          0.20957       -0.94269        5.89590
C          0.18942        0.43402        5.69250
C          1.08206        1.01399        4.79706
C          1.96598        0.20963        4.07643
C          3.35559       -3.41834        3.66071
C          4.26694       -2.23701        3.75324
C          5.48792       -2.15820        2.89950
N          5.83347       -0.75034        2.75368
H          0.29025        0.43786        0.69676
H          0.62637        0.43225       -1.04864
H          1.95640        0.46235        0.11238
H          0.03877       -1.86369       -0.47686
H          1.77318       -1.82455       -0.76090
H         -0.10321       -1.66262        2.83636
H         -0.85795       -2.23968        1.39163
H          0.87031       -4.06248        3.13176
H         -0.89011       -3.98908        3.11880
H         -0.00802       -4.50941        1.67247
H          1.07057       -2.81928        5.32791
H         -0.48545       -1.39935        6.59553
H         -0.52164        1.05491        6.23042
H          1.07986        2.08919        4.63978
H          2.64118        0.67586        3.35971
H          3.04060       -3.87269        4.59173
H          3.53605       -4.14398        2.87321
H          4.49738       -1.88380        4.75606
H          6.31148       -2.67901        3.39967
H          5.36283       -2.63040        1.92029
H          6.68267       -0.68131        2.19561
H          5.10479       -0.33087        2.16816
