30

C          1.41177        0.02458       -0.26506
C          1.00283        0.14980       -1.70309
O          0.79569       -0.79576       -2.45093
O          0.88560        1.49733       -2.02524
C          0.36449        1.77226       -3.29855
C          1.23500        2.43370       -4.17287
C          0.79514        2.81086       -5.44150
C         -0.51248        2.53507       -5.83571
C         -1.38376        1.88203       -4.96017
C         -0.96106        1.50390       -3.67447
C         -1.97388        0.83858       -2.81541
O         -2.98517        0.30982       -3.25091
O         -1.67780        0.95558       -1.50265
C         -2.56484        0.24793       -0.61527
S         -3.93717        1.19213        0.04827
C         -4.94645        1.58336       -1.35760
O         -4.70813        0.30603        0.90289
O         -3.41636        2.44026        0.57782
H          1.07872       -0.94375        0.11954
H          0.92172        0.79895        0.33322
H          2.49625        0.10832       -0.17721
H          2.25447        2.65591       -3.86818
H          1.47110        3.32259       -6.12288
H         -0.85758        2.83094       -6.82410
H         -2.40284        1.67802       -5.28590
H         -2.95619       -0.67275       -1.06156
H         -1.96421       -0.04808        0.25173
H         -5.23634        0.65684       -1.85537
H         -5.83718        2.10271       -0.99779
H         -4.38831        2.23946       -2.02689
