40

C          0.69571       -0.25897       -0.08097
C          0.43368        0.79887        0.99394
C          1.11176        2.19737        0.79214
C          2.59288        2.04093        0.38274
C          3.09553        2.52705       -0.83767
C          4.42137        2.29428       -1.21537
C          5.27316        1.57649       -0.38223
C          4.80583        1.10321        0.83866
C          3.48279        1.33719        1.22001
C          1.04362        2.94578        2.14581
O          1.19480        2.36024        3.22211
N          0.85785        4.31821        2.08960
C          0.97042        5.10847        3.32638
C          2.32590        5.83362        3.47794
O          2.42321        6.97987        2.62517
C          2.51955        6.34229        4.91517
O          2.64228        5.27793        5.84845
C          0.52057        4.98602        0.92546
O          0.59542        6.20902        0.86025
N          0.06059        4.26664       -0.13629
C          0.30682        3.01209       -0.19264
O         -0.15809        2.38416       -1.27854
H          0.37667        0.05961       -1.07505
H          0.14023       -1.17133        0.16163
H          1.75292       -0.53414       -0.13347
H         -0.65262        0.93674        1.08332
H          0.74903        0.35382        1.94647
H          2.47076        3.07650       -1.53809
H          4.78499        2.66448       -2.17109
H          6.29850        1.38304       -0.68610
H          5.46681        0.53952        1.49250
H          3.14853        0.93614        2.17668
H          0.16040        5.84884        3.32447
H          0.80054        4.44791        4.18263
H          3.13968        5.14594        3.22096
H          1.85559        6.85566        1.83630
H          3.42974        6.94967        4.97491
H          1.69314        6.99806        5.21642
H          1.76262        5.09263        6.21844
H         -0.61869        3.03740       -1.83481
