18

O          1.09600        0.32337       -0.19577
C          2.30883        0.27391       -0.05157
O          2.92275        0.34508        1.14992
C          4.35629        0.30409        1.13005
C          4.91735       -1.09326        0.99856
C          4.13184       -2.23860        1.19482
C          4.68746       -3.51307        1.06710
C          6.03884       -3.65931        0.76407
C          6.83759       -2.53145        0.59170
C          6.28139       -1.25607        0.70898
H          3.00981        0.15296       -0.89101
H          4.73059        0.94622        0.32226
H          4.70102        0.73300        2.07748
H          3.07719       -2.15485        1.45144
H          4.06377       -4.39205        1.21038
H          6.47017       -4.65252        0.67035
H          7.89548       -2.64569        0.36888
H          6.92463       -0.38822        0.57690
