59

C          1.13643       -1.09979        0.00047
C          0.19754        0.08244       -0.08014
C          0.91622        1.39260       -0.29730
C         -1.15848       -0.20004       -0.70608
C         -1.78209        0.74572       -1.65197
C         -2.38222        0.35998       -2.79105
C         -3.04290        1.20999       -3.79642
O         -3.57166        0.73172       -4.78329
O         -2.99388        2.52443       -3.50198
C         -3.63115        3.44685       -4.44049
C         -3.03503        3.50060       -5.82743
F         -3.34875        2.46987       -6.62759
F         -3.41708        4.63272       -6.46718
F         -1.68070        3.55242       -5.74653
C         -5.13007        3.31929       -4.57276
F         -5.69479        3.22347       -3.34150
F         -5.65710        4.42951       -5.14321
F         -5.55409        2.26598       -5.28839
C         -1.07165        0.14099        0.76315
C         -1.33155       -0.84100        1.84553
O         -1.23629       -0.51283        3.01571
O         -1.75037       -2.04126        1.38251
C         -2.16743       -3.06523        2.32563
C         -1.32857       -3.22038        3.53761
N         -0.66397       -3.41165        4.47262
C         -3.66102       -2.99686        2.61714
C         -4.32757       -1.78354        2.84743
C         -5.69375       -1.76184        3.12817
C         -6.40646       -2.95457        3.21818
C         -5.76329       -4.17726        3.02361
O         -6.57794       -5.28241        3.13502
C         -6.02307       -6.53410        3.23152
C         -6.49005       -7.49794        2.33745
C         -5.99883       -8.80148        2.39959
C         -5.04840       -9.14151        3.36241
C         -4.60623       -8.18524        4.27821
C         -5.10854       -6.88373        4.22758
C         -4.40335       -4.19356        2.69586
H          0.61431       -2.04461        0.18089
H          1.68016       -1.20499       -0.94492
H          1.86654       -0.96086        0.80386
H          1.28829        1.45988       -1.32404
H          0.27516        2.25913       -0.10505
H          1.77245        1.47069        0.38232
H         -1.36652       -1.24072       -0.95097
H         -1.75611        1.80434       -1.39943
H         -2.42040       -0.69469       -3.05014
H         -3.44146        4.42582       -3.98343
H         -1.42449        1.12937        1.04806
H         -2.01019       -3.98775        1.74976
H         -3.80185       -0.83307        2.81923
H         -6.20074       -0.81328        3.28798
H         -7.46937       -2.93136        3.44590
H         -7.23817       -7.23249        1.59546
H         -6.36154       -9.55186        1.70200
H         -4.66269      -10.15704        3.40823
H         -3.87742       -8.45730        5.03773
H         -4.78172       -6.15152        4.96090
H         -3.90415       -5.14033        2.50233
