10

O          1.17634       -0.17984        0.41230
C          2.34705       -0.11113        0.06918
C          3.28914       -1.28826       -0.08785
C          4.60273       -0.71118       -0.52956
C          4.65235        0.61684       -0.67227
S          3.16076        1.41026       -0.31140
H          3.39639       -1.79978        0.87254
H          2.89474       -1.97246       -0.84398
H          5.45667       -1.35030       -0.71906
H          5.53139        1.16813       -0.98373
