36

O          1.00701       -0.11185       -0.25831
C          2.19003       -0.05961        0.06507
C          3.16677       -1.12926       -0.38650
C          3.91638       -0.73260       -1.65803
C          4.99515        0.29799       -1.41802
C          6.14593       -0.03343       -0.68659
C          7.11375        0.93409       -0.40891
C          6.93288        2.23353       -0.86913
O          7.84516        3.21240       -0.61038
C          5.80739        2.57692       -1.60770
C          4.83955        1.61075       -1.88508
N          2.78254        0.95722        0.79098
C          2.09777        2.05233        1.36684
C          2.79640        3.27226        1.35375
C          2.19936        4.44971        1.81090
C          0.90052        4.42429        2.30668
C          0.21137        3.21414        2.37447
C          0.80925        2.01983        1.93036
C          0.04004        0.79004        2.22744
O         -1.17383        0.69389        2.24135
O          0.82119       -0.20746        2.68832
H          3.84819       -1.36929        0.43789
H          2.58214       -2.03715       -0.57977
H          4.39041       -1.62241       -2.09135
H          3.20837       -0.36617       -2.41205
H          6.29258       -1.04893       -0.32307
H          7.99285        0.65692        0.16456
H          8.59857        2.82119       -0.13802
H          5.68317        3.59480       -1.96757
H          3.95819        1.89465       -2.45768
H          3.77892        1.07839        0.65089
H          3.80328        3.33081        0.94415
H          2.74698        5.38830        1.76635
H          0.42966        5.33917        2.65793
H         -0.79025        3.19475        2.80227
H          0.17557       -0.92612        2.84882
