37

C          0.58346        1.35527        0.39758
C          0.18848        1.54582       -1.06619
O          1.03361        1.01375       -2.09958
P          2.76361        1.01375       -2.09958
S          2.86481        2.95147       -1.48260
O          2.67477       -0.15108       -0.92768
C          2.29895       -1.45608       -1.37633
C          0.97338       -1.89302       -0.77234
S          4.88361        1.01375       -2.09958
C          5.50496        2.12333       -3.37014
S          4.70031        2.01473       -4.98319
O          5.11669        3.21938       -5.77844
C          5.52458        0.54109       -5.74812
C          7.05249        0.64474       -5.72511
C          5.05419       -0.74822       -5.06693
C          5.05701        0.50582       -7.21808
H          0.52359        0.30980        0.69894
H         -0.09815        1.91900        1.04295
H          1.59665        1.68526        0.63212
H         -0.78767        1.06755       -1.20411
H          0.01682        2.60747       -1.27459
H          2.22750       -1.47924       -2.46975
H          3.08495       -2.15389       -1.07655
H          1.00910       -1.85468        0.32066
H          0.71804       -2.91178       -1.07670
H          0.15393       -1.24281       -1.09269
H          5.37523        3.15452       -3.02862
H          6.58337        1.99329       -3.47056
H          7.46057        0.53135       -4.71622
H          7.50415       -0.14999       -6.33054
H          7.40205        1.60365       -6.12317
H          3.96875       -0.75522       -4.91483
H          5.30935       -1.62684       -5.67032
H          5.53322       -0.89481       -4.09535
H          3.96388        0.45875       -7.28979
H          5.38505        1.39718       -7.76599
H          5.46221       -0.36712       -7.74194
