39

C          1.23652       -1.03345        0.15786
C          0.56697       -1.25721        1.29849
C         -0.81601       -0.90948        1.58181
C         -1.42377       -1.49101        2.63399
C         -1.60165        0.02607        0.68004
C         -1.34816        1.53752        0.87349
C         -0.07706        2.02165        0.22844
C          0.08172        2.79257       -0.86720
C          1.47361        3.09695       -1.36537
C         -1.03354        3.45652       -1.65455
C         -1.58955        2.64839       -2.83940
C         -2.58621        1.61151       -2.39934
C         -3.92085        1.76422       -2.29888
C         -4.78302        0.68247       -1.70784
C         -4.63830        3.01875       -2.70936
H          0.79078       -0.55295       -0.70452
H          2.27310       -1.33860        0.06430
H          1.10629       -1.77258        2.09208
H         -2.46643       -1.29681        2.86379
H         -0.91155       -2.19948        3.27688
H         -1.44660       -0.27037       -0.36122
H         -2.67449       -0.13694        0.85710
H         -2.20829        2.08409        0.47327
H         -1.31463        1.77865        1.94306
H          0.82027        1.66945        0.73695
H          1.58863        2.76086       -2.40073
H          1.66769        4.17349       -1.32168
H          2.24693        2.59839       -0.77054
H         -1.84550        3.75822       -0.98196
H         -0.64211        4.40309       -2.05251
H         -2.06165        3.33851       -3.54862
H         -0.78073        2.15601       -3.39282
H         -2.14310        0.66343       -2.11091
H         -5.29592        1.06218       -0.81661
H         -5.53528        0.34981       -2.42864
H         -4.19964       -0.19115       -1.39846
H         -4.20070        3.90103       -2.23239
H         -4.59761        3.13927       -3.79694
H         -5.69490        2.98419       -2.42318
