32

C         -2.75951       -0.28891        0.13091
C         -1.85891       -1.42640       -0.40233
N         -0.82002       -1.85610        0.54972
C          0.26158       -2.57162       -0.15425
C          1.33516       -1.60042       -0.70106
N          2.03475       -0.96116        0.42361
C          2.73618        0.26518        0.01892
C          1.95105        1.54943        0.37034
N          0.85736        1.80960       -0.57210
C         -0.26453        2.51344        0.06081
C         -1.25682        1.53866        0.73715
N         -2.25388        1.04133       -0.22158
H         -3.73079       -0.39612       -0.36859
H         -2.96144       -0.38571        1.20459
H         -1.42687       -1.11473       -1.36144
H         -2.49309       -2.29540       -0.62093
H         -1.24494       -2.48140        1.23254
H          0.73917       -3.25559        0.55882
H         -0.13615       -3.19901       -0.96096
H          0.86009       -0.86097       -1.35462
H          2.05756       -2.16172       -1.30347
H          1.29860       -0.71582        1.09264
H          3.02736        0.25144       -1.03889
H          3.67278        0.29309        0.58871
H          2.63673        2.40528        0.35718
H          1.58745        1.46500        1.40260
H          1.20933        2.35298       -1.35643
H         -0.79213        3.09676       -0.70445
H          0.10252        3.24479        0.79156
H         -1.78860        2.07171        1.53470
H         -0.70609        0.72961        1.22718
H         -3.02515        1.70485       -0.26202
