24

N          1.13799       -0.00904        0.15726
N          0.54680        0.54252        1.31266
C         -0.15997        1.73542        1.36019
O         -0.40940        2.27909        2.42932
C         -0.58531        2.37738        0.09550
C         -0.27404        3.72291       -0.10766
C         -0.63536        4.34217       -1.30684
C         -1.32818        3.63217       -2.30275
C         -1.67278        4.36935       -3.55380
O         -1.74948        5.59843       -3.52271
N         -1.87342        3.72380       -4.76488
N         -1.59910        2.37763       -5.05266
C         -1.70188        2.30530       -2.05314
C         -1.31712        1.67234       -0.86527
H          1.23509        0.71259       -0.56204
H          2.10221       -0.26801        0.38620
H          0.78586        0.16309        2.22849
H          0.25005        4.28773        0.66035
H         -0.38050        5.39017       -1.45933
H         -2.11455        4.36206       -5.52335
H         -1.40120        2.29209       -6.05361
H         -0.72882        2.10311       -4.59018
H         -2.31238        1.75192       -2.76178
H         -1.60253        0.63739       -0.68689
