57

C          0.68446        0.12461       -0.26131
O          0.40359        0.90132        0.90633
C          0.77789        0.26429        2.06789
C         -0.20475        0.24943        3.08547
C          0.08283       -0.40094        4.27041
C          1.29889       -1.05936        4.36808
C          2.30851       -1.01775        3.43018
C          2.06568       -0.30275        2.26684
O          3.01798       -0.09971        1.30202
C          4.35491       -0.47866        1.61857
C          1.34090       -1.71946        5.64646
O          2.06542       -2.67450        5.85517
C          0.37737       -1.00458        6.56636
C         -0.05712       -1.82945        7.77581
C          0.92744       -1.96753        8.99232
C          0.83549       -0.83300       10.02177
C          1.49966        0.45293        9.54043
N          2.86797        0.30446        9.04768
C          3.42335        1.53834        8.44450
C          2.72673        2.09229        7.20599
C          3.28094        1.93002        5.92676
C          2.62241        2.42418        4.79472
C          1.38889        3.05998        4.91914
C          0.83388        3.24642        6.17978
C          1.51527        2.79769        7.31303
C          3.15608       -0.89241        8.25615
C          2.42573       -2.16085        8.72181
C         -0.71825       -0.57646        5.53887
H         -0.01750        0.42738       -1.04351
H          0.54827       -0.95052       -0.09040
H          1.69163        0.33237       -0.63434
H         -1.16044        0.73863        2.92495
H          3.24620       -1.50738        3.65849
H          4.73081        0.08128        2.48265
H          4.43268       -1.55833        1.78384
H          4.98700       -0.23335        0.76034
H          0.85832       -0.08677        6.90343
H         -1.00488       -1.42584        8.15592
H         -0.28499       -2.84601        7.42815
H          0.58441       -2.87156        9.51670
H         -0.21016       -0.63624       10.28413
H          1.32698       -1.15563       10.95057
H          0.82975        0.86730        8.78943
H          1.51133        1.16262       10.37686
H          3.44200        2.32871        9.20550
H          4.48241        1.36738        8.20535
H          4.23336        1.42090        5.79905
H          3.06227        2.30132        3.80756
H          0.86429        3.41052        4.03343
H         -0.12736        3.74265        6.28444
H          1.07632        2.98462        8.29016
H          4.23346       -1.09653        8.31116
H          2.96267       -0.70688        7.20211
H          2.89808       -2.48274        9.66148
H          2.59688       -2.99666        8.03968
H         -1.47488       -1.35630        5.40237
H         -1.19901        0.35808        5.84639
