20

N          1.00168       -0.26853       -0.22209
C          0.39078       -0.93779        0.71621
N          1.14846       -1.62189        1.66136
N          0.70034       -2.89188        2.11739
C         -1.10690       -0.88568        0.74429
N         -1.75665       -0.71185       -0.44533
C         -3.09871       -0.64154       -0.43022
N         -3.92059       -0.71842        0.63493
C         -3.22621       -0.88159        1.76896
N         -3.74232       -0.98495        3.02737
C         -2.69622       -1.14829        3.89120
N         -1.54136       -1.16642        3.25951
C         -1.85148       -0.97850        1.92303
H          2.01221       -0.36277       -0.13369
H          2.14817       -1.60035        1.46300
H          1.03712       -3.02357        3.07712
H         -0.31605       -2.89449        2.24858
H         -3.57739       -0.50848       -1.39611
H         -4.72416       -0.94149        3.25969
H         -2.83589       -1.24803        4.95989
