37

N          2.40718       -0.38883        0.44350
C          1.02251       -0.23443        0.31491
C          0.25508       -1.23778       -0.27863
C         -1.13265       -1.10859       -0.37117
C         -1.77256       -0.00190        0.19829
S         -3.51214        0.17510       -0.13687
O         -3.65818        0.08557       -1.57890
O         -4.19900       -0.74669        0.74323
N         -3.99502        1.69524        0.31478
C         -3.30869        2.85590       -0.06647
C         -2.57198        3.06022       -1.22248
N         -1.77793        4.14907       -1.37846
C         -1.79782        5.05425       -0.36532
C         -2.62408        4.88602        0.74953
N         -3.38953        3.77860        0.91089
C         -2.74307        5.94798        1.80646
C         -1.50156        6.82852        1.89853
C         -1.10253        7.33093        0.51408
C         -0.78367        6.16492       -0.41998
C         -1.02890        0.92893        0.92255
C          0.36540        0.81017        0.97150
H          2.81911       -0.97204       -0.27940
H          2.90504        0.49098        0.54387
H          0.73359       -2.11677       -0.70279
H         -1.70856       -1.87155       -0.89147
H         -4.45551        1.76182        1.21825
H         -2.53916        2.34283       -2.03339
H         -2.93780        5.48487        2.78056
H         -3.61459        6.56806        1.56121
H         -0.67303        6.25971        2.33905
H         -1.70089        7.67626        2.56364
H         -1.91989        7.92910        0.09294
H         -0.22927        7.98829        0.59270
H         -0.68356        6.53042       -1.44765
H          0.18480        5.73496       -0.13201
H         -1.49007        1.75980        1.44521
H          0.94018        1.55477        1.51737
