46

C          0.98247       -0.06507        0.01045
C          0.45135        0.30248       -1.38680
C          1.26678       -0.45812       -2.44367
O          1.83185        0.23238       -3.54531
C          1.90645        1.59490       -3.49675
C          2.72000        2.22050       -4.47867
N          3.45336        1.55378       -5.45636
C          4.92002        1.65587       -5.38432
C          5.50696        1.57849       -6.81193
N          5.07874        0.36503       -7.55115
C          5.57774        0.41597       -8.92515
C          3.59632        0.27422       -7.54086
C          2.98440        0.33231       -6.11413
C          2.76633        3.62975       -4.47791
F          3.50521        4.27511       -5.39700
C          2.03332        4.39577       -3.59232
C          1.24437        3.75587       -2.64036
C          0.43840        4.59854       -1.72176
O          0.50993        5.81963       -1.80472
C         -0.43353        3.91582       -0.73773
C         -1.30103        4.66280        0.19313
O         -1.48414        5.86568        0.23391
O         -1.93629        3.87311        1.08435
C         -0.38546        2.57395       -0.73425
N          0.39984        1.76255       -1.54434
C          1.18765        2.34848       -2.55000
H          0.94072       -1.14876        0.16695
H          0.39682        0.39882        0.81044
H          2.02199        0.25920        0.13396
H         -0.58076       -0.07099       -1.44055
H          2.08301       -1.02269       -1.97575
H          0.61360       -1.22701       -2.87666
H          5.31406        0.83382       -4.77234
H          5.25278        2.59068       -4.91861
H          6.60086        1.59065       -6.73664
H          5.20419        2.48115       -7.36041
H          5.28421       -0.48439       -9.47530
H          5.20474        1.29008       -9.47205
H          6.67292        0.44955       -8.93331
H          3.16958        1.09584       -8.13324
H          3.28637       -0.66566       -8.01239
H          3.28693       -0.55568       -5.54596
H          1.89234        0.33141       -6.21074
H          2.07504        5.47846       -3.66427
H         -2.44546        4.52167        1.61708
H         -1.00111        2.00575       -0.04040
