30

C          1.01005        0.42621        0.14522
C          0.52664       -0.97254        0.47166
O          1.15332       -1.46498        1.66579
C          2.31150       -2.13428        1.45949
O          2.95652       -2.19784        0.42243
C          2.76792       -2.73747        2.71943
C          3.99603       -2.26384        3.21498
C          4.53395       -2.78824        4.38981
C          3.85795       -3.79679        5.06904
C          2.64106       -4.27569        4.57655
C          2.07765       -3.75595        3.39454
C          0.77385       -4.34514        2.98180
O          0.08687       -5.01026        3.74492
O          0.46902       -4.07388        1.69506
C         -0.84951       -4.44512        1.26491
C         -0.80230       -5.78115        0.55472
H          0.78526        1.11138        0.96852
H          0.52616        0.79730       -0.76313
H          2.09411        0.44569       -0.00259
H         -0.55209       -0.95731        0.65835
H          0.69170       -1.65457       -0.37162
H          4.53463       -1.48173        2.68198
H          5.48139       -2.41404        4.77131
H          4.27633       -4.21589        5.98177
H          2.13190       -5.06993        5.12266
H         -1.56168       -4.46195        2.09819
H         -1.19131       -3.66916        0.57202
H         -0.44294       -6.56680        1.22629
H         -1.79411       -6.05763        0.18592
H         -0.10982       -5.73992       -0.29224
