29

O          0.93069        0.13542        0.03253
C          2.15980        0.11413        0.03795
O          2.83581        1.25284       -0.25243
C          2.94979       -1.16120        0.36317
F          2.60719       -1.62355        1.60369
F          2.60719       -2.16114       -0.50446
C          4.44596       -0.95053        0.30945
F          4.79095       -0.47943       -0.92425
F          4.79094        0.05382        1.16690
C          5.21235       -2.22048        0.63329
F          4.86901       -2.66886        1.86991
F          4.86901       -3.20628       -0.23760
C          6.71040       -1.97717        0.57125
F          7.05024       -1.52052       -0.66536
F          7.05024       -0.98410        1.43817
C          7.49092       -3.24054        0.89342
F          7.14831       -3.69163        2.13016
F          7.14831       -4.22878        0.02371
C          8.98738       -2.99116        0.82982
F          9.32716       -2.53578       -0.40682
F          9.32716       -1.99920        1.69738
C          9.76075       -4.24952        1.15071
F          9.43000       -4.70915        2.39073
F          9.43000       -5.24684        0.28223
C         11.24863       -3.96858        1.07907
F         11.63477       -3.55502       -0.15026
F         11.63477       -3.01683        1.96024
F         11.97299       -5.07988        1.36246
H          3.81456        1.25823       -0.25381
