29

O          0.90118       -0.08117        0.00342
C          2.12750       -0.12187        0.00911
N          2.89590        1.03287        0.02341
C          4.27692        1.03222        0.06448
N          5.02770       -0.02702        0.09002
C          4.31149       -1.17763        0.05041
C          2.93995       -1.32179        0.01367
N          2.57178       -2.64199       -0.00286
C          3.71429       -3.29798        0.00699
N          4.80031       -2.45523        0.04805
C          6.17849       -2.89096        0.12292
C          6.92272       -2.46306        1.37731
C          8.35023       -2.41604        0.89133
C          8.20911       -1.94870       -0.55283
C          8.32728       -0.43000       -0.72511
O          9.62908        0.03245       -0.37970
O          6.91604       -2.38979       -1.00658
H          2.37852        1.89827        0.01683
H          4.71624        2.04249        0.07916
H          3.81318       -4.37618       -0.00996
H          6.18905       -3.98505        0.04029
H          6.61826       -1.47002        1.72427
H          6.77361       -3.15927        2.20833
H          8.99532       -1.78691        1.51011
H          8.76605       -3.43114        0.90555
H          8.97768       -2.43029       -1.16832
H          8.13624       -0.16117       -1.76962
H          7.59304        0.11083       -0.12268
H          9.63035        0.20876        0.57654
