18

O          1.06199       -0.09503       -0.04039
C          2.27325        0.06844       -0.09011
O          3.09433       -0.88301       -0.59493
C          2.98906        1.29595        0.42698
S          2.39182        2.77793       -0.43792
S          3.62717        2.84772       -2.07695
S          3.15379        4.59798       -3.03504
S          2.91764        4.08087       -5.00866
C          2.64207        5.69659       -5.79876
C          1.19388        6.09193       -5.70183
O          0.75544        7.08312       -5.13799
O          0.36082        5.25672       -6.35646
H          4.04214       -0.65467       -0.61354
H          2.77592        1.37750        1.49812
H          4.07546        1.20219        0.33061
H          3.26760        6.46947       -5.33960
H          2.91700        5.64879       -6.85762
H         -0.53531        5.61417       -6.18495
