35

C          5.68460        0.43199       -0.00148
C          4.95501        1.61102       -0.00143
C          3.55807        1.56546       -0.00062
C          2.84237        0.34109        0.00010
C          3.61181       -0.84716        0.00002
C          5.01632       -0.78973       -0.00072
C          2.96543       -2.08410        0.00059
C          1.57247       -2.15681        0.00099
C          0.78132       -1.02297        0.00092
N         -0.55280       -1.19468        0.00095
C         -1.38793       -0.12939        0.00072
C         -0.86589        1.17504        0.00093
C         -1.71370        2.29084        0.00090
C         -3.09387        2.12597        0.00032
C         -3.64768        0.84468       -0.00025
C         -5.04222        0.67566       -0.00122
C         -5.60769       -0.59834       -0.00189
C         -4.78574       -1.71834       -0.00149
C         -3.39727       -1.56323       -0.00049
C         -2.79302       -0.28779        0.00007
C          0.52538        1.33986        0.00096
C          1.40447        0.23875        0.00069
H          6.77085        0.46068       -0.00214
H          5.46678        2.57000       -0.00207
H          3.03503        2.51754       -0.00069
H          5.60504       -1.70505       -0.00080
H          3.53616       -3.01036        0.00059
H          1.09186       -3.13272        0.00128
H         -1.30464        3.29869        0.00119
H         -3.73125        3.00743        0.00017
H         -5.70255        1.54043       -0.00156
H         -6.68823       -0.71428       -0.00275
H         -5.21937       -2.71483       -0.00200
H         -2.77213       -2.45555       -0.00024
H          0.92049        2.35122        0.00103
