20

C          1.00185       -0.01130       -0.08338
C          0.50686        0.22213        1.31591
C          0.11535       -0.87319        2.11795
C         -0.31751       -0.68212        3.43021
C         -0.33327        0.61592        3.90263
C          0.05892        1.71858        3.14801
C          0.48846        1.52679        1.84434
C         -0.04126        2.97680        3.88176
C         -0.49313        2.80884        5.13557
S         -0.81990        1.13723        5.49644
O          0.14448        0.63411        6.45118
O         -2.24537        0.92338        5.62684
H          0.71570        0.81776       -0.73906
H          0.56887       -0.92396       -0.50601
H          2.09206       -0.10537       -0.08280
H          0.14845       -1.88358        1.71323
H         -0.62478       -1.51478        4.05407
H          0.80673        2.37020        1.23741
H          0.22579        3.92641        3.44102
H         -0.65386        3.57657        5.87333
