32

C          0.84284        0.05068       -0.27020
O          0.14998        1.30155       -0.27259
C          0.82709        2.35167        0.25315
N          2.08004        2.34477        0.61268
C          2.55813        3.53187        1.14589
C          1.82042        4.63344        1.36290
F          2.36235        5.75085        1.88350
C          0.45788        4.62525        1.00600
N         -0.52970        5.48238        1.10832
C         -1.57294        4.85466        0.44109
S         -3.15653        5.63076        0.21587
O         -3.53790        5.31902       -1.14821
O         -3.94220        5.15118        1.33622
N         -3.17547        7.33286        0.34492
C         -2.04656        7.98100        0.95385
C         -2.12302        8.44385        2.26778
F         -3.27236        8.32412        2.94886
C         -1.02779        9.04731        2.88434
C          0.17299        9.18166        2.18475
C          0.26294        8.72885        0.86733
C         -0.84641        8.14314        0.25854
F         -0.73104        7.68986       -0.99893
N         -1.28739        3.59471        0.03839
N          0.00731        3.47630        0.40918
H          0.30341       -0.63747       -0.92639
H          0.84180       -0.36197        0.74343
H          1.86629        0.14998       -0.64468
H          3.61558        3.54429        1.39970
H         -4.04371        7.55570        0.84048
H         -1.11490        9.40339        3.90687
H          1.03828        9.63247        2.66557
H          1.19444        8.80954        0.31518
