10

N          1.01081        0.06573        0.04964
C          0.58129        1.40996       -0.37437
C          1.06889        1.85038       -1.76055
F          0.62306        0.97781       -2.70111
F          0.54357        3.06162       -2.06934
H          0.68186       -0.61166       -0.64269
H          2.02825        0.00249        0.03306
H         -0.51410        1.43044       -0.36596
H          0.91023        2.14109        0.37174
H          2.15942        1.90810       -1.81969
