11

O          1.12156        0.15974        0.11559
N          2.31784       -0.11209       -0.07274
O          2.91079        0.17825       -1.12569
C          3.01704       -0.89132        0.97713
Br         2.48693       -0.29868        2.74930
N          2.66360       -2.30097        0.68814
O          3.14405       -2.82657       -0.32972
O          1.86708       -2.88627        1.44033
N          4.49337       -0.75867        0.93229
O          4.99509        0.30400        0.52423
O          5.16915       -1.66288        1.44960
