49

C          1.60133        0.45895        0.30913
C          0.84070        0.20539        1.61262
C          0.70702        1.44642        2.49127
C          2.07268        1.89043        2.98986
C          2.86328        0.80030        3.77221
C          4.40361        1.10834        3.67176
C          4.71895        2.60369        3.88479
C          5.25760        0.32225        4.67414
C          2.44312       -0.61629        3.39087
C          2.82370       -1.74221        4.10762
N          2.38187       -3.00278        3.87747
C          1.54436       -3.13466        2.85273
N          0.88014       -4.36093        2.79036
S          0.75721       -5.07851        1.28435
O          2.05919       -5.06001        0.65135
O          0.09024       -6.34780        1.51250
C         -0.35292       -4.07736        0.31961
C         -1.71403       -4.37511        0.24556
C         -2.55869       -3.54914       -0.50883
C         -2.06487       -2.40305       -1.14118
N         -2.90227       -1.60178       -1.92620
C         -0.68563       -2.19793       -1.16584
C          0.17001       -3.03692       -0.45077
N          1.05254       -2.13449        2.13589
C          1.50538       -0.89046        2.40471
H          1.11203        1.24259       -0.27780
H          1.63958       -0.44446       -0.30615
H          2.64106        0.75542        0.48046
H         -0.17484       -0.12070        1.35076
H          0.05586        1.23578        3.34977
H          0.23506        2.25898        1.92647
H          2.64980        2.22542        2.12003
H          1.94772        2.77471        3.62732
H          2.56550        0.91733        4.82478
H          4.74715        0.84246        2.66289
H          4.29480        2.96535        4.82753
H          5.79978        2.78136        3.90961
H          4.33067        3.22524        3.07239
H          5.37215       -0.72021        4.36791
H          6.27282        0.73072        4.73842
H          4.82384        0.35658        5.67898
H          3.48470       -1.67288        4.96620
H          1.27416       -5.01023        3.46296
H         -2.12567       -5.24339        0.75415
H         -3.61352       -3.80032       -0.58668
H         -3.87298       -1.61513       -1.62958
H         -2.55521       -0.65379       -2.04153
H         -0.26244       -1.37022       -1.72795
H          1.24040       -2.84492       -0.45986
