47

C          1.26727        0.04409        0.09912
C          0.65302        0.02437        1.49938
C          1.05175        1.29417        2.25671
C         -0.88185       -0.10088        1.46867
C         -1.44082       -1.32609        0.73336
C         -0.93650       -2.69616        1.23118
C         -1.32119       -2.95863        2.68625
N         -1.54277       -3.74448        0.40001
C         -0.74706       -4.68404       -0.25620
C         -1.22700       -5.27598       -1.42967
C         -0.48743       -6.24979       -2.11196
C          0.75399       -6.67554       -1.63288
N          1.50048       -7.68041       -2.28156
C          1.61225       -7.93455       -3.66685
C          1.92836       -9.23271       -4.08724
C          2.07952       -9.53012       -5.44378
C          1.93399       -8.52468       -6.39688
C          1.64055       -7.22454       -5.99253
C          1.48386       -6.93146       -4.63509
C          1.20174       -6.14390       -0.42068
C          0.46051       -5.16535        0.25748
H          0.84105        0.84826       -0.51003
H          1.10212       -0.90336       -0.42280
H          2.35037        0.19894        0.15284
H          1.07295       -0.82676        2.04813
H          0.67701        2.19203        1.75338
H          0.64919        1.28251        3.27511
H          2.14132        1.37726        2.33032
H         -1.26263       -0.09845        2.49750
H         -1.30443        0.79458        0.99353
H         -2.53650       -1.29408        0.80874
H         -1.22164       -1.23076       -0.33805
H          0.15427       -2.70730        1.14411
H         -2.40529       -2.88845        2.82946
H         -1.01365       -3.96361        2.99586
H         -0.84012       -2.24470        3.36146
H         -2.30971       -3.41116       -0.17814
H         -2.19343       -4.98533       -1.83380
H         -0.90723       -6.69166       -3.01163
H          2.38903       -7.86424       -1.82365
H          2.03634      -10.02793       -3.35357
H          2.30820      -10.54598       -5.75413
H          2.05278       -8.75317       -7.45262
H          1.53839       -6.43406       -6.73142
H          1.28012       -5.90561       -4.34038
H          2.13506       -6.48525        0.01910
H          0.84059       -4.80639        1.20884
