20

C         -2.65526       -0.95123       -0.05202
C         -1.20401       -0.56044       -0.02069
C         -0.22974       -1.56931        0.01826
C          1.13119       -1.25426        0.05074
C          1.55411        0.07138        0.00039
N          2.90950        0.38810        0.15620
C          0.58680        1.07845        0.02839
C         -0.79067        0.78409       -0.00275
C         -1.75109        1.94193       -0.00179
H         -3.16534       -0.59010        0.84667
H         -3.14079       -0.53982       -0.94271
H         -2.77933       -2.03897       -0.08646
H         -0.52340       -2.61660        0.03746
H          1.85765       -2.05949        0.11382
H          3.15378        1.30627       -0.20077
H          3.53523       -0.33491       -0.18429
H          0.90406        2.11812        0.07431
H         -1.59675        2.55354        0.89352
H         -1.58740        2.56159       -0.88978
H         -2.79817        1.62978       -0.00747
