28

N          1.29889        0.39242        0.10688
S          0.62854        1.35161        1.31222
O          1.27056        2.63737        1.17731
O         -0.79975        1.17045        1.22149
C          1.17885        0.60397        2.81399
C          1.28495        1.39185        3.96107
C          1.67164        0.80223        5.16939
C          1.96285       -0.57017        5.24603
S          2.40279       -1.19233        6.86111
C          1.90722       -2.95742        6.87290
C          0.40857       -3.21315        7.04812
C         -0.43920       -3.12497        5.78620
O         -0.02229       -4.07806        4.81857
C          1.91148       -1.31525        4.06245
F          2.22025       -2.61943        4.05040
C          1.50704       -0.74864        2.85539
H          0.55020       -0.02735       -0.44745
H          1.94878        0.95043       -0.44953
H          1.05536        2.45576        3.92809
H          1.73468        1.42884        6.05872
H          2.33932       -3.50924        6.03681
H          2.40193       -3.36311        7.76410
H          0.30781       -4.23799        7.43033
H         -0.00651       -2.55219        7.81797
H         -1.47991       -3.35699        6.03522
H         -0.43513       -2.12679        5.34352
H          0.81885       -3.77155        4.43405
H          1.44548       -1.37846        1.97363
