30

N          1.53377       -0.31903       -1.08408
C          0.54695       -1.13833       -1.06872
N          0.69633       -2.40668       -1.53879
N         -0.73415       -0.90928       -0.67107
C         -1.47057        0.01290        0.00214
N         -2.76574        0.05950       -0.12722
N         -0.97811        0.88213        0.90832
C          0.37473        1.22752        1.26696
C          0.82596        2.52024        0.57052
C          0.42305        3.85296        1.18620
C          0.71588        5.02536        0.46563
C          0.45401        6.28973        1.00113
C         -0.10453        6.40597        2.26987
C         -0.41014        5.25796        2.99499
C         -0.15054        3.99198        2.45781
H          2.36337       -0.76735       -1.47394
H          0.22021       -3.11123       -0.98465
H          1.65486       -2.68934       -1.70543
H         -1.33898       -1.53147       -1.18192
H         -3.09116       -0.62433       -0.80863
H         -1.68611        1.53891        1.21986
H          0.43309        1.32781        2.35501
H          1.06205        0.41045        1.05514
H          1.92361        2.51546        0.54993
H          0.48329        2.50676       -0.47290
H          1.16575        4.95772       -0.52330
H          0.69500        7.18242        0.43000
H         -0.29922        7.38726        2.69400
H         -0.84504        5.34497        3.98764
H         -0.40017        3.13019        3.06862
