15

O          1.47120       -0.31764       -0.26943
C          2.67273       -0.08943       -0.25979
C          3.14654        1.24819        0.25885
Br         1.78619        2.44942        0.81361
C          4.41048        1.60534        0.51097
C          5.52484        0.68524        0.55224
C          5.84622       -0.10461       -0.48195
C          4.95156       -1.18991       -0.86482
Br         5.85339       -2.75208       -1.48048
C          3.60431       -1.18807       -0.77876
O          2.89971       -2.33226       -1.19071
H          4.63345        2.59513        0.91475
H          5.24202        0.08433        1.43314
H          6.90333       -0.39763       -0.50390
H          3.54061       -2.99150       -1.51067
