21

C          1.08049        0.14914        0.21214
C          0.48615        0.85931        1.39191
O         -0.05526        1.95609        1.33301
O          0.64236        0.09467        2.51221
O          0.00532        0.81711        3.61380
C          0.92705        0.92766        4.60671
O          2.07782        0.51137        4.57874
C          0.32703        1.60330        5.79165
C          1.10824        1.73415        6.94957
C          0.58330        2.34616        8.09058
C         -0.72367        2.83061        8.08345
C         -1.50706        2.70715        6.93694
C         -0.98593        2.09721        5.79260
H          0.74214        0.62952       -0.71072
H          0.73934       -0.88986        0.19222
H          2.17060        0.19261        0.26241
H          2.12947        1.35730        6.96991
H          1.19410        2.44381        8.98528
H         -1.13247        3.30609        8.97214
H         -2.52638        3.08684        6.93277
H         -1.61997        2.01809        4.91279
