36

C          2.52153       -0.90527       -0.30897
C          2.56162        0.48464       -0.36951
C          1.39419        1.23738       -0.21143
O          1.36751        2.61058       -0.20109
C          2.58224        3.32597        0.05830
C          3.03998        3.14051        1.47103
C          4.32695        2.43075        1.81759
O          4.24115        3.85974        1.79598
C          0.14348        0.57979       -0.07989
C         -1.08681        1.26682       -0.00879
C         -2.30089        0.57603        0.05825
C         -2.32299       -0.81559        0.08080
O         -3.57224       -1.37200        0.06612
C         -3.69364       -2.79603       -0.02998
C         -3.39784       -3.29383       -1.41401
C         -3.64250       -4.73837       -1.76775
O         -4.53808       -3.69748       -2.18261
C         -1.11449       -1.51160        0.07653
C          0.11234       -0.83330       -0.03196
C          1.30793       -1.55900       -0.12263
H          3.43674       -1.48140       -0.41841
H          3.52140        0.95055       -0.55612
H          3.34866        3.09410       -0.68973
H          2.33950        4.38599       -0.07927
H          2.23522        3.17338        2.19272
H          4.39342        1.94176        2.78171
H          4.91258        1.96140        1.03815
H         -1.10921        2.35439       -0.04127
H         -3.23516        1.13275        0.06972
H         -3.07455       -3.29368        0.72538
H         -4.73170       -3.03328        0.23166
H         -2.59853       -2.77579       -1.92444
H         -3.01488       -5.19191       -2.52497
H         -3.99515       -5.41953       -1.00395
H         -1.09750       -2.59511        0.11820
H          1.30040       -2.64586       -0.08186
