21

O          0.94231       -0.01198        0.20526
C          2.15648        0.05960        0.15579
O          2.82751        1.01120       -0.52436
C          3.04659       -0.93487        0.79566
C          4.21046       -0.54209        1.46702
C          5.02332       -1.50859        2.06408
C          4.66926       -2.86620        2.00387
C          5.55116       -3.81697        2.70245
O          6.76641       -3.78736        2.69731
O          4.84736       -4.64228        3.49325
C          3.50674       -3.25918        1.32877
C          3.18027       -4.68743        1.14388
O          3.97162       -5.58598        0.93676
O          1.85504       -4.89955        1.20599
C          2.68664       -2.28633        0.73538
H          3.78441        0.85377       -0.62949
H          4.47666        0.50885        1.56073
H          5.92406       -1.20427        2.59654
H          5.52115       -5.22728        3.89994
H          1.75461       -5.86817        1.09085
H          1.77773       -2.57841        0.20983
