30

C          1.04739        0.13945       -0.11756
C          0.63416       -1.25975       -0.55738
C          1.05207       -2.40672        0.33685
C          1.85486       -2.24884        1.47386
C          2.18195       -3.34640        2.27601
C          1.71820       -4.62348        1.94565
C          0.94539       -4.80406        0.80304
C          0.61034       -3.70025        0.00537
C          0.47853       -6.15303        0.42276
O         -0.19810       -6.31526       -0.58644
C          0.84066       -7.30527        1.27330
C          0.43061       -8.59417        0.90832
C          0.75825       -9.68635        1.71407
C          1.48913       -9.49512        2.88628
C          1.90299       -8.21273        3.24958
C          1.58368       -7.11673        2.43756
C          2.04628       -5.76778        2.81824
O          2.69384       -5.60013        3.84547
H          0.65745        0.37678        0.87796
H          0.65448        0.88462       -0.81690
H          2.13719        0.24430       -0.09634
H         -0.46013       -1.27600       -0.63940
H          1.04075       -1.44033       -1.56010
H          2.23607       -1.27258        1.76445
H          2.79822       -3.19758        3.16132
H         -0.00548       -3.84839       -0.88207
H         -0.14312       -8.75159       -0.00350
H          0.44125      -10.68678        1.42755
H          1.73987      -10.34514        3.51715
H          2.47580       -8.07111        4.16460
