21

C          0.93394        0.21171        0.10772
C          0.42116        1.36197        0.93333
O         -0.35093        2.19272        0.45836
N          0.92379        1.35010        2.21999
N          0.10619        1.82344        3.04097
C          0.59251        1.77609        4.42982
C          0.34362        0.42889        5.01485
C          0.85937       -0.82734        4.74718
C          0.20178       -1.73326        5.61628
C         -0.65699       -0.96271        6.36341
N         -1.58089       -1.30376        7.39825
O         -2.20828       -0.38660        7.94235
O         -1.67288       -2.50850        7.67257
O         -0.58309        0.35095        6.01802
H          0.59044        0.31516       -0.92514
H          0.55430       -0.72907        0.51584
H          2.02725        0.20693        0.11579
H          1.66066        2.02076        4.48279
H          0.06156        2.54183        5.00623
H          1.60726       -1.05737        3.99985
H          0.33325       -2.80436        5.68732
