18

N          1.05387       -0.02139        0.20262
C          0.38296       -1.19936        0.03151
O         -0.75346       -1.21265       -0.42336
C          1.09258       -2.45937        0.38019
C          0.63199       -3.65605       -0.18950
C          1.25586       -4.87113        0.10336
C          2.34340       -4.90294        0.97545
C          2.79567       -3.71025        1.55632
N          3.93584       -3.74129        2.48113
O          4.40422       -4.84714        2.78419
O          4.36530       -2.65580        2.89747
C          2.17421       -2.48566        1.26780
H          0.58162        0.81356       -0.12251
H          2.04738        0.04330        0.36817
H         -0.22018       -3.64230       -0.86883
H          0.88953       -5.79095       -0.34817
H          2.81949       -5.85697        1.19492
H          2.51323       -1.57332        1.75028
