43

C          1.18828       -0.06781       -0.02635
C          0.59535       -0.54153        1.29389
C          1.00569        0.31861        2.49180
C          0.56331        1.74066        2.39877
N          1.31329        2.80443        2.60307
C          0.50007        3.88967        2.37304
C          0.79584        5.26518        2.44574
C          2.14407        5.76650        2.86730
C         -0.23616        6.16651        2.10432
C         -1.50881        5.72392        1.70610
C         -2.55234        6.67477        1.31928
N         -3.75524        6.72294        1.86365
C         -4.42192        7.73801        1.22942
C         -5.72032        8.22293        1.44386
C         -6.18426        9.28059        0.65268
C         -5.37212        9.84226       -0.33405
C         -4.07445        9.36972       -0.56293
C         -3.63050        8.31339        0.24255
N         -2.45259        7.60222        0.30019
C         -1.34764        7.78391       -0.61099
C         -1.80850        4.35375        1.68958
C         -0.77719        3.47476        2.01994
N         -0.72376        2.10743        2.09033
H          0.81444        0.92289       -0.30281
H          0.91502       -0.76008       -0.82930
H          2.28041       -0.02276        0.02619
H         -0.49681       -0.57929        1.20497
H          0.92915       -1.57030        1.47569
H          0.58789       -0.11835        3.40669
H          2.09694        0.29040        2.60013
H          2.37549        5.41246        3.87711
H          2.91247        5.40312        2.17785
H          2.18499        6.86038        2.87583
H         -0.04013        7.23613        2.16172
H         -6.34386        7.78008        2.21226
H         -7.18849        9.66603        0.81116
H         -5.75493       10.66301       -0.93733
H         -3.44866        9.80966       -1.33159
H         -1.74073        7.86577       -1.62822
H         -0.82207        8.70038       -0.33149
H         -0.66902        6.93051       -0.57163
H         -2.79854        3.99998        1.41836
H         -1.49081        1.47816        1.90463
