26

O          1.31706        0.38175        0.36489
C          2.49223        0.09291        0.19922
O          3.28981       -0.27017        1.22723
C          3.19013        0.11194       -1.14248
C          2.68838       -0.97569       -2.09186
C          1.21784       -0.86412       -2.51299
C          0.83024        0.44346       -3.21125
C          1.45712        0.66050       -4.59399
C          1.11830       -0.39999       -5.63958
C         -0.33215       -0.38430       -6.03422
O         -0.80705        0.17776       -7.00718
O         -1.11819       -1.06269       -5.17907
H          4.21321       -0.46229        0.98177
H          3.08231        1.11411       -1.56879
H          4.26738       -0.02726       -0.99427
H          3.31958       -0.97530       -2.98849
H          2.83138       -1.95453       -1.61649
H          0.97592       -1.71648       -3.15770
H          0.57997       -0.98724       -1.63064
H         -0.26149        0.47802       -3.30137
H          1.08958        1.29572       -2.57322
H          1.12864        1.64044       -4.96369
H          2.54691        0.72005       -4.49236
H          1.69711       -0.20320       -6.55071
H          1.40087       -1.40878       -5.32366
H         -2.02535       -0.93149       -5.52615
