28

C          0.63636        0.12000        0.03118
C          0.51837       -0.08205        1.53467
O         -0.61095        0.63389        2.00141
C         -0.28458        1.60091        2.98342
C         -1.57177        2.14634        3.58718
O          0.67128        1.21224        3.95127
C          0.53232        0.03142        4.72544
C         -0.59588        0.01240        5.74703
O          0.83584       -1.20946        4.10550
C          0.01908       -1.80606        3.11419
C         -1.48770       -1.85209        3.34617
O          0.34879       -1.47020        1.76831
H          0.73466        1.18190       -0.21515
H         -0.25099       -0.26113       -0.48571
H          1.50230       -0.42129       -0.36494
H          1.46538        0.24409        1.98112
H          0.17887        2.43968        2.44971
H         -1.36961        2.81509        4.42847
H         -2.14851        2.68516        2.82761
H         -2.22889        1.34593        3.93471
H          1.40779        0.13293        5.37958
H         -0.45007       -0.80981        6.45628
H         -0.62758        0.95709        6.30009
H         -1.57981       -0.13118        5.30600
H          0.31317       -2.86092        3.16708
H         -1.96784       -2.48878        2.59473
H         -1.72167       -2.24472        4.33998
H         -1.96324       -0.87526        3.25390
