52

C         -0.60896        0.19522        0.01015
C         -0.46891        1.54397        0.71388
C          0.94247        2.13960        1.11327
C          1.70019        2.90024       -0.06824
C          2.98557        2.19177       -0.53258
C          2.62410        0.71610       -0.53073
C          2.61466       -0.11292       -1.77660
C          2.25784       -1.40825       -1.63202
C          2.31095       -2.13132       -0.30241
C          2.53454       -1.32792        1.00110
C          2.79255        0.18767        0.89368
C          1.88447        1.10017        1.84939
C          2.70125        2.00633        2.81771
C          1.99113        3.36446        2.90853
C          0.64772        3.16716        2.23574
O          0.12071        4.40173        1.77204
C          1.47654       -2.12066       -2.73901
C          0.78213       -1.15480       -3.68422
O         -0.42595       -1.57212       -4.21910
C         -0.27723       -2.07372       -5.54154
C          1.18484        0.09690       -3.83753
C          2.33968        0.65700       -3.06689
H         -1.65563       -0.12825        0.02598
H         -0.04149       -0.58992        0.51082
H         -0.32948        0.24513       -1.04466
H         -1.01635        2.28649        0.12209
H         -1.04731        1.41552        1.63844
H          1.02136        2.99131       -0.92576
H          1.98189        3.92369        0.19871
H          3.32919        2.57626       -1.49618
H          3.80995        2.39951        0.16168
H          1.54620        0.76996       -0.58254
H          3.08977       -2.90143       -0.37881
H          1.37131       -2.68314       -0.16576
H          3.39712       -1.78005        1.51325
H          1.69928       -1.53098        1.68203
H          3.84128        0.32199        1.19647
H          1.26386        0.45137        2.48162
H          2.74554        1.54613        3.81099
H          3.73369        2.16050        2.48990
H          1.86219        3.70386        3.94142
H          2.57234        4.14552        2.40304
H         -0.06094        2.76227        2.96773
H         -0.13685        4.30918        0.83852
H          2.13401       -2.78841       -3.30237
H          0.69306       -2.73443       -2.27796
H          0.69729       -1.84870       -5.98913
H         -0.42805       -3.15602       -5.51832
H         -1.05698       -1.62707       -6.16682
H          0.62218        0.79024       -4.46545
H          2.03242        1.68164       -2.83436
H          3.24043        0.72515       -3.68143
