25

C          1.18338       -0.01175       -0.07108
N          0.58667        0.30049       -1.35659
C         -0.88998        0.37025       -1.33014
C         -1.49333        1.41789       -0.37031
C         -0.96415        2.86789       -0.45932
C         -1.35749        3.57645       -1.75516
C         -1.49587        3.67349        0.73274
C         -1.46625        0.53142       -2.74520
O         -2.64274        0.39973       -3.05133
O         -0.56911        0.89227       -3.68823
H          0.78964       -0.95110        0.33060
H          1.02970        0.78344        0.66379
H          2.26331       -0.13959       -0.19543
H          0.96301        1.16544       -1.74376
H         -1.24411       -0.62137       -1.01544
H         -2.58391        1.43473       -0.50243
H         -1.33132        1.05773        0.65481
H          0.12929        2.86794       -0.38565
H         -2.42659        3.46436       -1.96426
H         -1.13816        4.64844       -1.69826
H         -0.79418        3.18803       -2.60606
H         -1.18215        3.22104        1.67947
H         -1.11058        4.69870        0.71386
H         -2.59009        3.72185        0.72379
H         -1.09733        0.93285       -4.51105
