30

S          0.77807       -0.53669        0.11616
C          2.44009       -0.19171        0.13566
N          3.17258        0.47844        1.10372
N          2.47645        1.19026        1.85946
C          3.24774        1.97321        2.73795
C          2.84538        2.08003        4.07481
C          3.51759        2.92724        4.96170
C          4.60138        3.68178        4.51761
C          5.01636        3.58592        3.19112
C          4.34021        2.73884        2.30701
N          3.27346       -0.60683       -0.90448
N          2.74424       -0.76921       -2.20400
C          3.34305       -1.77488       -3.00203
C          2.85484       -1.93220       -4.31177
C          3.44086       -2.84629       -5.19480
C          4.51901       -3.61568       -4.78346
C          5.01904       -3.47132       -3.48878
C          4.43749       -2.54594       -2.61108
H          1.98841        1.50957        4.42462
H          3.18493        3.00740        5.99413
H          5.11541        4.35148        5.20171
H          5.85503        4.18159        2.83870
H          4.65687        2.69638        1.26739
H          4.21392       -0.22821       -0.88864
H          1.72297       -0.85573       -2.21263
H          2.02604       -1.32314       -4.66109
H          3.05370       -2.94317       -6.20786
H          4.97822       -4.32554       -5.46711
H          5.86173       -4.07361       -3.16315
H          4.85376       -2.46353       -1.60998
