31

C          2.67645       -1.36717        0.05087
N          1.41760       -0.64883        0.01392
C          0.25985       -1.43531        0.02939
O          0.25086       -2.66226        0.06588
C         -0.92693       -0.66340        0.00601
N         -2.23885       -1.03443        0.04288
C         -2.99129        0.12354        0.01995
C         -4.44734        0.14270        0.08356
C         -5.17356        0.87708       -0.86195
C         -6.56605        0.94508       -0.78816
C         -7.24117        0.29207        0.24160
C         -6.52681       -0.43679        1.19168
C         -5.13438       -0.51709        1.11077
N         -2.20461        1.18539       -0.06792
C         -0.93850        0.69270       -0.04370
N          0.22206        1.42580       -0.04933
C          0.16069        2.87631       -0.04733
C          1.45136        0.76186       -0.00635
O          2.51836        1.38141        0.01684
H          2.71195       -1.97186        0.96309
H          2.72573       -2.04156       -0.81033
H          3.54517       -0.70496        0.03134
H         -2.59649       -1.97987        0.07926
H         -4.65140        1.40757       -1.65605
H         -7.12041        1.52003       -1.52548
H         -8.32381        0.36275        0.31113
H         -7.05336       -0.92766        2.00635
H         -4.59261       -1.06256        1.87954
H         -0.40265        3.21358       -0.92302
H         -0.34726        3.20766        0.86438
H          1.15579        3.32719       -0.07514
