30

C          0.11575        0.40837        0.09059
C          0.31691        0.35193       -1.42486
C          0.84051       -1.02138       -1.95773
C          1.05694       -0.92367       -3.49441
C          2.29040       -1.20903       -4.10826
C          2.46048       -1.07655       -5.49160
C          1.40262       -0.66246       -6.29433
C          0.16885       -0.38960       -5.71642
C         -0.00252       -0.52359       -4.33580
C          2.15687       -1.30436       -1.20622
O          3.07659       -0.49034       -1.10400
N          2.31642       -2.53178       -0.63129
C          1.50906       -3.63360       -1.00884
N          0.14919       -3.24047       -1.05208
C         -0.24013       -2.08268       -1.66017
O         -1.43423       -1.94061       -1.93048
H         -0.57138       -0.36978        0.43598
H         -0.31030        1.37674        0.37198
H          1.06084        0.29773        0.63014
H         -0.64645        0.60503       -1.88436
H          1.01094        1.15347       -1.71104
H          3.15869       -1.51640       -3.53013
H          3.42870       -1.28554       -5.94009
H          1.54019       -0.54912       -7.36623
H         -0.66403       -0.06646       -6.33590
H         -0.98746       -0.30580       -3.92440
H          3.23088       -2.68980       -0.22701
H          1.62478       -4.42727       -0.26589
H          1.81794       -3.99285       -1.99438
H         -0.58245       -3.93459       -0.96529
