33

C          1.49809       -0.81696       -0.04344
C          0.51877       -1.76849       -0.71962
C          0.64141       -3.12704       -0.00420
C         -0.95573       -1.27053       -0.73745
S         -1.34464        0.24933       -1.75469
C         -1.05816        1.71646       -0.66072
C         -1.59191        1.48071        0.74274
O         -0.95111        1.13202        1.72327
O         -2.92099        1.69035        0.84619
C          0.38252        2.28823       -0.67312
C          1.02926        2.30491       -2.06626
C          0.43876        3.71167       -0.10153
C         -1.82297       -2.37944       -1.35474
O         -2.72399       -2.98268       -0.79134
O         -1.48684       -2.69745       -2.62569
H          1.06873       -0.37209        0.85826
H          1.80571       -0.03931       -0.74154
H          2.42293       -1.32295        0.25436
H          0.86273       -1.91933       -1.75152
H          0.26193       -3.06851        1.02139
H          0.09621       -3.91520       -0.53133
H          1.68816       -3.44934        0.04035
H         -1.32673       -1.12422        0.28186
H         -1.69394        2.49946       -1.09710
H         -3.13470        1.50171        1.78436
H          1.00784        1.69788       -0.00322
H          0.48840        2.97382       -2.74414
H          2.06623        2.65100       -2.00313
H          1.06522        1.31371       -2.52705
H          0.04726        3.74887        0.91930
H          1.47768        4.06074       -0.06448
H         -0.13028        4.41431       -0.71805
H         -2.12621       -3.38974       -2.88988
