17

O          0.95918       -0.00632        0.19929
S          2.40205       -0.03322        0.13831
O          3.12948       -1.16136       -0.40339
O          2.88994        1.22951       -0.74029
C          3.01616        0.28450        1.76815
C          3.47853       -0.77955        2.54998
C          3.98715       -0.52491        3.82501
C          4.03175        0.78616        4.29502
O          4.52129        1.07871        5.53324
C          3.57840        1.84639        3.51433
C          3.06806        1.59923        2.24006
H          3.41288        0.87686       -1.49127
H          3.44401       -1.80023        2.17476
H          4.34227       -1.35266        4.43147
H          4.77885        0.25170        5.97296
H          3.62182        2.86147        3.90045
H          2.71006        2.42611        1.63118
