18

O          1.09849       -0.03208       -0.15304
C          0.36117       -1.09411        0.27306
C          0.66663       -1.81816        1.41167
N         -0.05449       -2.87739        1.84543
C         -1.12993       -3.24208        1.12217
C         -1.89432       -4.32584        1.53310
C         -3.01987       -4.74631        0.81778
C         -3.39828       -4.07199       -0.33767
C         -2.65049       -2.98037       -0.77419
C         -1.51874       -2.56051       -0.05335
C         -0.74622       -1.46788       -0.46924
H          1.84529        0.10081        0.45486
H          1.52050       -1.57143        2.03397
H         -1.60477       -4.85844        2.43584
H         -3.59557       -5.59941        1.16729
H         -4.27225       -4.39452       -0.89768
H         -2.95267       -2.45814       -1.67916
H         -1.00210       -0.91077       -1.36578
