30

C         -0.66325       -0.41084        0.31401
C          0.14248       -1.61378       -0.15277
O          1.01479       -1.96843        0.90801
C          2.42977       -2.11520        0.64910
F          2.59298       -2.54733       -0.62901
C          3.15410       -0.75808        0.83254
F          2.73410       -0.19395        1.99622
F          4.48898       -0.96972        0.98613
C          3.02765        0.21344       -0.32961
F          3.65610       -0.30971       -1.42416
F          1.74632        0.42466       -0.71672
C          3.64560        1.54542        0.05108
F          2.96741        2.14171        1.06124
F          4.93548        1.44076        0.43839
F          3.61676        2.41123       -0.99407
C          2.88588       -3.22925        1.61289
F          2.46433       -2.93154        2.88639
C          2.27506       -4.54037        1.17910
F          2.74453       -4.95421       -0.02014
F          2.53198       -5.53739        2.05987
F          0.92670       -4.49164        1.07084
C          4.36712       -3.49316        1.63735
F          4.89618       -3.51416        0.39503
F          5.02945       -2.54852        2.34412
F          4.69241       -4.66138        2.23093
H         -1.33100       -0.69419        1.13444
H         -1.26129        0.00700       -0.49932
H         -0.01280        0.37309        0.71756
H         -0.53810       -2.45292       -0.32987
H          0.66706       -1.41954       -1.09130
