15

F          2.16134       -0.04294       -0.04940
C          0.82083       -0.01134       -0.03275
C          0.12580       -1.21771       -0.01803
C         -1.26733       -1.21174        0.00867
C         -1.95492        0.00144        0.02261
C         -1.25098        1.20867        0.01045
C          0.15257        1.21528       -0.02111
C          0.92477        2.50088       -0.02560
Cl         0.64795        3.40868       -1.52906
H          0.67559       -2.15348       -0.02770
H         -1.81634       -2.14982        0.01735
H         -3.04253        0.00867        0.04013
H         -1.80447        2.14598        0.01764
H          0.61780        3.12843        0.81751
H          2.00245        2.33319        0.06137
