30

C          1.02557        0.13463       -0.05668
C          0.74546        0.73712        1.30894
O          1.24370        2.07896        1.39935
C          2.57388        2.19518        1.67283
O          3.34605        1.25386        1.80543
O          2.87065        3.53325        1.76438
N          4.26162        3.72736        1.87800
C          4.59134        4.98499        1.83063
C          3.61032        6.12889        1.76117
C          6.08754        5.30516        1.82929
O          6.87702        4.43455        1.47596
C          6.61810        6.65097        2.14311
C          7.68012        7.12371        1.35797
C          8.22246        8.38685        1.59200
C          7.71182        9.18016        2.61686
C          6.67324        8.70383        3.41908
C          6.13146        7.43433        3.19302
H          0.63469        0.77738       -0.85189
H          0.56467       -0.85395       -0.14302
H          2.10076        0.02891       -0.23093
H         -0.33737        0.79193        1.46335
H          1.15163        0.11396        2.11403
H          3.41893        6.50023        2.77166
H          4.00276        6.93620        1.13849
H          2.65458        5.82106        1.33117
H          8.09072        6.50428        0.56159
H          9.04579        8.74616        0.97909
H          8.13549       10.16513        2.80030
H          6.29552        9.32172        4.23086
H          5.35447        7.07153        3.85906
