27

C          1.15132        0.57184        0.87980
C          0.58331       -0.80766        1.23080
C          0.78005       -1.03929        2.73538
C         -0.91524       -0.94519        0.87399
N         -1.32482       -1.37453       -0.46343
C         -1.26776       -2.82341       -0.70823
C          0.04132       -3.32404       -1.33513
O          0.37129       -2.58591       -2.51742
C          0.48834       -1.18964       -2.21760
C         -0.81248       -0.62850       -1.61579
H          0.61108        1.36646        1.40636
H          1.10066        0.78709       -0.18808
H          2.20572        0.63862        1.17015
H          1.16847       -1.57306        0.71490
H          0.21305       -0.31288        3.32761
H          0.45000       -2.04398        3.02033
H          1.83705       -0.94960        3.00863
H         -1.39241       -1.62538        1.59284
H         -1.40281        0.02001        1.06704
H         -2.07839       -3.05080       -1.41314
H         -1.49524       -3.39515        0.19922
H          0.87704       -3.27486       -0.63064
H         -0.07288       -4.37312       -1.62772
H          0.70843       -0.67166       -3.15691
H          1.34917       -1.04359       -1.55907
H         -1.58352       -0.69439       -2.39506
H         -0.71853        0.43926       -1.39364
