23

C          0.60599       -0.04675        0.38383
C          0.27847        1.40485        0.10274
C          1.37330        2.23558       -0.54530
O          1.76683        3.28165       -0.02705
C          1.88046        1.89459       -1.89903
C          1.90862        2.91167       -2.86051
C          2.42939        2.66390       -4.13317
C          2.93307        1.39891       -4.45790
C          3.54148        1.15501       -5.80773
C          2.92059        0.39164       -3.48631
C          2.40198        0.63833       -2.21105
H          0.49001       -0.65641       -0.51741
H         -0.08340       -0.45253        1.13149
H          1.62622       -0.16620        0.76122
H         -0.63224        1.48985       -0.49964
H          0.05947        1.88575        1.06551
H          1.54155        3.90638       -2.61476
H          2.45581        3.46971       -4.86391
H          2.88518        1.53355       -6.59787
H          4.51242        1.65605       -5.87563
H          3.69355        0.08589       -5.98957
H          3.33621       -0.58941       -3.70812
H          2.46411       -0.15193       -1.47221
