33

C          0.81797        0.08826        0.00075
O          0.19459        0.91772        0.97755
C          0.70622        0.78817        2.24064
C          2.05480        0.58996        2.52655
C          2.47608        0.47447        3.85323
C          1.55611        0.55513        4.90888
C          1.96718        0.40744        6.24267
C          1.04478        0.44639        7.29748
C          1.49714        0.21121        8.71838
C          1.66023       -1.26936        9.05424
C          2.91478       -1.87996        8.46025
C          4.23503       -1.49938        9.07811
O          2.86828       -2.63896        7.49186
C         -0.30515        0.66850        7.00526
C         -0.72559        0.84032        5.68316
C          0.19195        0.77551        4.62306
C         -0.21394        0.90785        3.28457
H          0.20467        0.12134       -0.90481
H          0.86540       -0.95415        0.33567
H          1.81286        0.46116       -0.26104
H          2.80009        0.53393        1.74070
H          3.53177        0.30989        4.05710
H          3.01963        0.23274        6.45573
H          2.42655        0.76534        8.89606
H          0.75634        0.64637        9.40161
H          1.72182       -1.39925       10.14112
H          0.79573       -1.85316        8.71676
H          5.00422       -2.20737        8.75561
H          4.51836       -0.49336        8.76176
H          4.16312       -1.54723       10.16739
H         -1.04569        0.70088        7.80129
H         -1.78198        1.00674        5.48369
H         -1.26016        1.07983        3.04333
