18

C          1.13380        0.06380        0.01605
C          0.42821       -0.80517        1.02338
O         -0.49534       -0.37593        1.71099
C          0.84934       -2.22701        1.15295
C          2.14909       -2.64528        0.83905
C          2.50216       -3.99217        0.97186
C          1.55241       -4.91104        1.40923
O          1.85294       -6.23327        1.54506
C          0.26088       -4.50657        1.72607
C         -0.09059       -3.16132        1.60642
H          0.61635        1.02598       -0.05133
H          1.09928       -0.40618       -0.97084
H          2.16543        0.25123        0.32142
H          2.90577       -1.93968        0.50898
H          3.51521       -4.30266        0.73433
H          2.78558       -6.37102        1.31205
H         -0.47038       -5.23421        2.06736
H         -1.10102       -2.84584        1.85948
