30

C          0.96005       -0.03103       -0.03021
O          0.42746        0.22193       -1.33075
C          0.84697        1.39171       -1.89811
O          1.65553        2.14674       -1.36114
C          0.26810        1.60041       -3.32774
O          1.14212        1.09572       -4.33411
C         -0.02485        3.08694       -3.58844
C          0.85229        4.16531       -3.55988
C          0.34638        5.43844       -3.82638
C         -1.01394        5.62177       -4.11883
C         -1.89306        4.53497       -4.14992
C         -1.39306        3.27004       -3.88351
C         -2.05686        1.98477       -3.86863
C         -3.37804        1.65662       -4.13340
C         -3.75069        0.30840       -4.10446
C         -2.80307       -0.68799       -3.82513
Cl        -3.29064       -2.33948       -3.81430
C         -1.47324       -0.36275       -3.56016
C         -1.11169        0.97994       -3.56369
H          0.58996       -1.00439        0.30356
H          0.61555        0.73147        0.67509
H          2.05356       -0.06904       -0.05903
H          1.71959        1.82846       -4.60357
H          1.90303        4.03476       -3.31613
H          1.01117        6.29934       -3.80108
H         -1.38762        6.62282       -4.32288
H         -2.94138        4.69092       -4.38214
H         -4.11244        2.41902       -4.37213
H         -4.78180        0.03404       -4.31383
H         -0.73700       -1.13534       -3.36098
