37

C          2.83858        0.32269       -0.02394
C          1.34111        0.26357       -0.07681
C          0.70422       -0.97753       -0.09198
C         -0.68590       -1.04505       -0.12276
C         -1.46772        0.12433       -0.14137
S         -3.21483       -0.17991       -0.08613
O         -3.50242       -0.90077       -1.31400
O         -3.39773       -0.83155        1.19982
C         -4.35655        1.21498       -0.09659
C         -5.74850        0.75220        0.03863
O         -6.58202        0.87512       -0.84608
O         -5.93544        0.19742        1.25451
C         -7.01959       -0.71626        1.50795
C         -7.23173       -1.73516        0.39022
C         -6.59766       -1.45008        2.78156
C         -3.94482        2.51189        0.54297
C         -3.98601        2.38929       -0.96233
C         -0.83757        1.36330       -0.14310
C          0.56343        1.42836       -0.10859
H          3.20262       -0.19040        0.87250
H          3.26451       -0.15856       -0.91017
H          3.20012        1.35495        0.00937
H          1.28231       -1.89880       -0.06857
H         -1.16655       -2.02373       -0.11563
H         -7.93140       -0.14170        1.70115
H         -6.27724       -2.12586        0.02116
H         -7.85028       -2.57311        0.72720
H         -7.74548       -1.27889       -0.46140
H         -6.39267       -0.73730        3.58795
H         -7.36100       -2.15625        3.11833
H         -5.66344       -2.00161        2.61539
H         -4.72139        3.11504        1.00862
H         -3.01838        2.55344        1.09432
H         -3.07430        2.35661       -1.54211
H         -4.79011        2.89485       -1.49201
H         -1.37003        2.30220       -0.16172
H          1.04719        2.40373       -0.09802
