21

C          2.14889        0.69578       -0.16356
C          2.18140       -0.67188        0.12192
C          1.00328       -1.41493        0.26460
C         -0.19688       -0.72112        0.09972
N         -1.50939       -1.09748        0.20851
C         -2.29358       -0.01621       -0.09337
C         -3.77911       -0.05803       -0.05932
C         -4.56730        0.95697       -0.55965
S         -6.21993        0.58773       -0.29411
C         -5.74721       -0.87563        0.46943
N         -4.45642       -1.13119        0.49785
N         -1.56168        1.04077       -0.38402
C         -0.26004        0.63037       -0.22643
C          0.93029        1.36163       -0.34659
H          3.07936        1.25209       -0.24913
H          3.14243       -1.16814        0.24302
H          1.02970       -2.47432        0.49517
H         -1.86658       -2.00915        0.45786
H         -4.25304        1.86424       -1.05703
H         -6.48056       -1.54634        0.89811
H          0.89722        2.42170       -0.57141
