20

N          1.24122        0.16845        0.10416
C          0.44567        1.41570        0.10538
C         -0.96970        1.08392       -0.43543
O         -1.31180        0.03028       -0.95739
O         -1.84797        2.10260       -0.37986
C          0.42872        1.99660        1.52022
C          0.19055        3.48835        1.32797
C          0.83244        3.83555       -0.01125
C          1.10269        2.51469       -0.74011
H          1.00954       -0.36741       -0.73622
H          2.23551        0.37793        0.05267
H         -2.65738        1.72868       -0.78744
H         -0.33674        1.54618        2.16105
H          1.40032        1.85932        2.01353
H          0.61419        4.07616        2.14856
H         -0.88222        3.70827        1.30156
H          1.77251        4.37766        0.14229
H          0.17635        4.48741       -0.59788
H          2.18918        2.37741       -0.81074
H          0.71995        2.54456       -1.76659
