48

C         -0.07063        0.17539       -0.09770
O         -0.45307       -1.17473       -0.33453
N          0.13658       -1.59574       -1.53395
C         -0.17962       -2.82277       -1.82810
C         -1.13813       -3.65832       -0.99916
N         -0.76838       -4.79228       -0.50162
O         -1.80090       -5.58937        0.03290
C         -2.84672       -4.88830        0.69562
C         -2.88045       -3.40537        0.39862
O         -2.36447       -3.12061       -0.89374
C          0.42510       -3.50476       -2.99870
C         -0.45419       -4.26581       -3.79687
C          0.00505       -4.95517       -4.91893
C          1.34877       -4.89425       -5.26015
C          2.22514       -4.13785       -4.48162
C          1.78484       -3.44035       -3.34072
O          2.78860       -2.67946       -2.79355
C          2.93964       -2.43150       -1.45535
N          3.54170       -1.24009       -1.23435
C          3.75906       -0.91359        0.03959
N          3.44592       -1.66139        1.09977
C          2.89020       -2.87044        0.84793
O          2.62857       -3.54068        2.02001
C          2.13356       -4.81702        2.00404
C          0.82553       -4.98848        2.46781
C          0.28478       -6.27022        2.57479
C          1.05017       -7.38122        2.22439
C          2.36830       -7.21441        1.79519
C          2.91993       -5.93442        1.70534
Cl         4.58073       -5.78758        1.25708
C          2.63167       -3.31383       -0.43860
F          2.12740       -4.52480       -0.70495
H         -0.47035        0.48252        0.87207
H         -0.48461        0.82487       -0.87455
H          1.01857        0.26832       -0.07209
H         -2.75371       -5.06064        1.77307
H         -3.78558       -5.35319        0.37809
H         -3.90576       -3.02750        0.46515
H         -2.29291       -2.85059        1.14148
H         -1.51609       -4.31859       -3.56334
H         -0.68811       -5.53207       -5.52621
H          1.71571       -5.42197       -6.13695
H          3.27264       -4.07964       -4.77433
H          4.22746        0.04550        0.23080
H          0.22748       -4.12420        2.74346
H         -0.73711       -6.40329        2.91970
H          0.62211       -8.37820        2.29128
H          2.96320       -8.08741        1.54167
