25

C          0.95339        0.07312       -0.30385
C          0.56949       -1.39718       -0.22887
C          1.01558       -2.07879        1.06787
C          0.42983       -1.48782        2.35463
C         -1.09822       -1.52804        2.45523
C         -1.72228       -2.92919        2.46441
C         -1.26861       -3.83954        3.60310
C         -1.69578       -3.31523        4.94995
O         -2.45373       -3.92217        5.70068
H          0.43881        0.66347        0.45986
H          0.67781        0.48489       -1.27998
H          2.03247        0.20364       -0.17402
H         -0.51246       -1.50081       -0.36368
H          1.03659       -1.92046       -1.07201
H          0.76885       -3.14517        1.00786
H          2.10977       -2.02592        1.13326
H          0.86874       -2.01217        3.21117
H          0.75650       -0.44626        2.45626
H         -1.39842       -0.99356        3.36417
H         -1.53554       -0.95853        1.62685
H         -2.81252       -2.81345        2.51626
H         -1.51289       -3.42741        1.51072
H         -1.71710       -4.83107        3.47165
H         -0.18349       -3.97452        3.61229
H         -1.26071       -2.34863        5.25422
