31

C          0.99902       -0.07641       -0.12835
C          0.70395        0.29250       -1.57092
O          1.20614       -0.71582       -2.46200
C          2.52604       -0.61290       -2.77346
O          3.27922        0.26689       -2.37602
C          2.97359       -1.72797       -3.69113
C          2.06532       -2.32209       -4.49661
C          2.38089       -3.32063       -5.53310
C          1.81172       -3.15913       -6.80553
C          2.18463       -3.98889       -7.86597
C          3.13150       -4.99247       -7.66709
C          3.67335       -5.18325       -6.38992
N          4.70744       -6.20469       -6.18476
O          5.02763       -6.90245       -7.15770
O          5.20873       -6.30230       -5.05601
C          3.27794       -4.37390       -5.31677
N          4.30900       -2.06812       -3.63783
C          5.12445       -1.70379       -4.56468
O          4.81341       -1.03911       -5.68949
H          0.60115       -1.06951        0.10393
H          0.55546        0.65185        0.55661
H          2.07716       -0.11419        0.05678
H         -0.37943        0.34133       -1.72212
H          1.10711        1.28022       -1.82377
H          1.02538       -2.00163       -4.48030
H          1.09706       -2.35951       -6.99547
H          1.75666       -3.83298       -8.85406
H          3.44187       -5.60503       -8.51118
H          3.70429       -4.52629       -4.32597
H          6.19795       -1.94276       -4.52871
H          3.86510       -0.86399       -5.75550
