31

C          1.20256       -0.07392       -0.00074
C          0.55431        1.31129       -0.00753
C          0.99844        2.08439       -1.25196
C         -0.98373        1.22968        0.03869
C         -1.57107        0.60459        1.31138
C         -1.18382        1.29815        2.62531
C         -1.56108        2.79326        2.71961
C         -3.08180        2.98091        2.68041
C         -1.00745        3.43262        4.00367
C          0.49066        3.60010        3.94660
O          1.04485        4.69250        3.86792
H          0.84297       -0.68388       -0.83654
H          0.98920       -0.60980        0.92891
H          2.29157        0.00627       -0.08685
H          0.91815        1.86710        0.86417
H          0.66187        1.59117       -2.16997
H          0.59091        3.10094       -1.24231
H          2.09010        2.16542       -1.29042
H         -1.40551        2.23339       -0.09295
H         -1.33792        0.64550       -0.82100
H         -2.66298        0.58409        1.21644
H         -1.26723       -0.44715        1.37312
H         -1.66248        0.75555        3.45118
H         -0.10671        1.17146        2.77561
H         -1.12832        3.32893        1.86635
H         -3.56819        2.43310        3.49504
H         -3.34759        4.03875        2.78054
H         -3.50499        2.63141        1.73413
H         -1.43777        4.43154        4.14565
H         -1.25537        2.83893        4.88985
H          1.08421        2.67176        3.98343
