80

C          1.37039        0.31639       -0.13931
C          0.58754        0.52840        1.15637
C          0.97001        1.86381        1.79505
C         -0.93327        0.47085        0.91642
C         -1.45315       -0.88012        0.40591
C         -1.08547       -2.07897        1.28436
C         -1.57332       -1.96246        2.72883
C         -3.09308       -2.07707        2.87244
C         -3.63354       -3.48758        2.60118
C         -3.12448       -4.54126        3.58392
O         -3.64887       -4.21531        4.87304
C         -2.85556       -3.56606        5.75648
O         -1.64307       -3.43573        5.66505
C         -3.66926       -2.99101        6.89050
C         -5.18737       -2.96898        6.66476
C         -5.90796       -4.33096        6.55337
C         -5.25698       -5.53221        7.25288
C         -5.19830       -5.44916        8.75904
O         -4.94415       -6.40659        9.47606
O         -5.47700       -4.19533        9.18519
C         -5.79028       -3.98843       10.56437
C         -7.31121       -3.89729       10.68119
C         -8.03740       -5.20305       10.33071
C         -7.69868       -6.36577       11.26706
C         -8.26999       -6.20219       12.67593
C         -9.79364       -6.33441       12.74763
C        -10.34585       -7.66715       12.22332
C         -9.74572       -8.92082       12.88808
C        -10.06226       -8.97179       14.38267
C        -10.25913      -10.18238       12.19354
H          1.07346        1.04244       -0.90341
H          1.20564       -0.68773       -0.54256
H          2.44621        0.42375        0.03257
H          0.87984       -0.25424        1.86586
H          0.68282        2.70776        1.16008
H          0.47546        1.98188        2.76542
H          2.05048        1.91612        1.96656
H         -1.45888        0.73132        1.84350
H         -1.21839        1.24356        0.19113
H         -2.54288       -0.81796        0.30375
H         -1.07491       -1.06099       -0.60645
H         -1.48136       -2.99106        0.82471
H          0.00226       -2.21058        1.29146
H         -1.07154       -2.73471        3.31741
H         -1.24613       -1.01566        3.17116
H         -3.37811       -1.75887        3.88173
H         -3.59258       -1.37033        2.20126
H         -4.72744       -3.43709        2.68315
H         -3.40688       -3.79751        1.57721
H         -3.53727       -5.51870        3.31332
H         -2.03597       -4.64517        3.58716
H         -3.40512       -3.52961        7.80397
H         -3.34197       -1.95138        7.01585
H         -5.64173       -2.40095        7.48669
H         -5.41497       -2.38705        5.76166
H         -6.93504       -4.20531        6.92128
H         -6.01907       -4.58009        5.49024
H         -5.85833       -6.41728        7.01063
H         -4.24441       -5.71363        6.88401
H         -5.34748       -4.74812       11.21432
H         -5.34680       -3.02830       10.84805
H         -7.58498       -3.56079       11.68506
H         -7.66719       -3.13010        9.98076
H         -9.11706       -5.01920       10.32828
H         -7.79765       -5.49571        9.30210
H         -8.04998       -7.29897       10.81446
H         -6.61598       -6.48710       11.35436
H         -7.80441       -6.94658       13.33142
H         -7.97753       -5.23176       13.09147
H        -10.10732       -6.18995       13.78752
H        -10.26171       -5.51803       12.18528
H        -11.43442       -7.66515       12.36265
H        -10.18963       -7.71929       11.13867
H         -8.65626       -8.91743       12.76799
H        -11.14176       -8.92159       14.55964
H         -9.68663       -9.89771       14.82992
H         -9.59149       -8.14026       14.91646
H         -9.96086      -10.18975       11.13944
H         -9.84076      -11.07998       12.66138
H        -11.35060      -10.24883       12.24043
