35

C          0.85120        0.17442       -0.28667
C          0.35535        1.58521       -0.12240
O         -0.44038        2.06585       -0.93360
N          0.71897        2.33340        0.96048
C          1.70873        2.14679        1.93804
C          1.56118        2.83973        3.14439
C          2.49289        2.68003        4.17995
C          3.60556        1.84795        4.02449
N          4.49217        1.69684        5.11654
N          5.14035        0.63071        5.04196
C          5.96230        0.42298        6.16534
C          7.34136        0.26582        5.98388
C          8.17820       -0.07315        7.05923
C          9.65106       -0.25047        6.83398
C          7.61893       -0.24615        8.33196
C          6.24617       -0.08987        8.52845
C          5.43165        0.23743        7.45044
O          4.08614        0.35099        7.68281
C          3.78050        1.21632        2.78509
C          2.84304        1.36031        1.75539
H          0.10919       -0.39512       -0.85595
H          0.95814       -0.32542        0.67928
H          1.79151        0.16574       -0.84148
H          0.13523        3.15765        1.05201
H          0.70089        3.48410        3.31236
H          2.33879        3.20379        5.12088
H          7.76099        0.39121        4.98823
H          9.82606       -0.98002        6.03632
H         10.10776        0.70434        6.55566
H         10.15322       -0.61864        7.73473
H          8.24648       -0.51529        9.17894
H          5.81141       -0.23745        9.51268
H          3.69575        0.62992        6.83192
H          4.65792        0.59900        2.60588
H          3.06271        0.87634        0.81145
