50

C          1.02418       -0.12677        0.29872
C          0.65278        1.31824       -0.00053
C          1.06541        1.77537       -1.40239
C          0.46477        0.96222       -2.55240
C         -1.06353        1.01553       -2.64396
C         -1.64789        2.37099       -3.05427
C         -1.14589        2.91737       -4.38882
C         -1.50023        2.02704       -5.55558
O         -2.53211        2.14339       -6.20560
O         -0.51993        1.09590       -5.76310
O         -0.97401        0.22096       -6.84689
C         -1.12809       -1.03174       -6.31954
O         -0.86662       -1.36647       -5.17045
C         -1.68125       -1.97842       -7.35751
C         -3.20779       -2.00706       -7.37795
C         -3.87970       -0.67642       -7.73154
C         -3.46951       -0.07362       -9.07888
C         -3.95528       -0.85420      -10.30330
C         -5.47643       -0.94523      -10.45244
C         -6.15725        0.41207      -10.55125
H          0.47879       -0.82491       -0.34325
H          0.77553       -0.37289        1.33567
H          2.09692       -0.29277        0.15764
H         -0.42378        1.45675        0.14525
H          1.14853        1.96460        0.73348
H          0.80300        2.83305       -1.52180
H          2.15879        1.72338       -1.47994
H          0.91279        1.30774       -3.48999
H          0.77317       -0.08535       -2.46068
H         -1.39852        0.26059       -3.36072
H         -1.50753        0.71383       -1.68895
H         -2.73972        2.26741       -3.10067
H         -1.44313        3.10869       -2.26981
H         -1.61069        3.89387       -4.57582
H         -0.06787        3.10687       -4.38210
H         -1.25610       -1.74183       -8.33799
H         -1.30560       -2.98019       -7.11275
H         -3.53829       -2.78040       -8.08096
H         -3.57080       -2.31587       -6.38909
H         -4.96661       -0.80867       -7.69483
H         -3.65760        0.04652       -6.94166
H         -3.84186        0.95583       -9.12917
H         -2.37975        0.01677       -9.13747
H         -3.54349       -0.37556      -11.20081
H         -3.53986       -1.86851      -10.28301
H         -5.70089       -1.51469      -11.36219
H         -5.90885       -1.51147       -9.62070
H         -5.74055        1.00027      -11.37504
H         -7.22880        0.28397      -10.73296
H         -6.04841        0.98646       -9.62648
