28

N          0.64571       -0.32307        0.19203
C          0.05825       -0.85070       -0.91637
O         -1.02255       -0.43737       -1.31849
C          0.82900       -1.95689       -1.60138
C          1.89764       -1.45850       -2.60100
C          2.97631       -0.55987       -1.95577
C          3.89272       -1.27964       -1.00625
O          5.05494       -1.58463       -1.21213
O          3.32068       -1.54956        0.18486
C          2.53171       -2.57556       -3.44437
C          2.22861       -3.93620       -3.26631
C          2.83496       -4.92210       -4.05348
C          3.76110       -4.56370       -5.02620
Cl         4.51892       -5.77872       -5.97854
C          4.07185       -3.22531       -5.23211
C          3.45113       -2.24031       -4.45741
H          0.15490        0.40641        0.69227
H          1.52331       -0.67255        0.56485
H          1.25978       -2.61526       -0.83823
H          0.07634       -2.55967       -2.12736
H          1.35977       -0.82198       -3.31979
H          3.61319       -0.10395       -2.72379
H          2.53811        0.29867       -1.43716
H          4.03986       -2.01913        0.66503
H          1.51479       -4.27058       -2.51832
H          2.57847       -5.96683       -3.89825
H          4.79466       -2.93780       -5.99084
H          3.70622       -1.20146       -4.65688
