13

N          1.11791       -0.04300        0.06392
C          0.34871        0.35592        1.09794
O         -0.71852       -0.15544        1.38812
O          0.93986        1.38625        1.73822
C          0.21601        1.93429        2.86219
C         -0.53142        3.23532        2.51888
Cl        -1.84370        2.97312        1.33422
Cl        -1.25259        3.91505        4.01794
Cl         0.60548        4.45477        1.85062
H          0.79450       -0.79522       -0.52591
H          1.98587        0.42855       -0.13795
H         -0.46224        1.19141        3.30151
H          0.97425        2.13475        3.62972
