61

C          1.15311       -0.65609        0.12179
C          0.97708        0.18958        1.37367
C          1.41626        1.64354        1.18108
C          0.64709        2.40939        0.09890
C         -0.86564        2.48585        0.33020
C         -1.26669        3.23037        1.60828
C         -0.86432        4.70960        1.62222
C         -1.49565        5.53813        0.49772
C         -3.02753        5.56897        0.53756
C         -3.60072        6.23544        1.79393
C         -3.21660        7.71192        1.94655
C         -3.68154        8.59225        0.78311
C         -5.20485        8.68992        0.66354
C         -5.89092        9.42066        1.82698
C         -5.35463       10.81964        2.14484
C         -5.75791       11.84718        1.11959
O         -6.42978       12.84065        1.36881
O         -5.31800       11.51773       -0.11818
C         -5.83063       12.28564       -1.22756
C         -7.29928       11.92373       -1.52960
O         -8.21084       12.51942       -0.59861
C         -7.71467       12.39543       -2.92533
O         -6.97315       11.73179       -3.94099
H          0.50737       -0.31191       -0.69162
H          0.89272       -1.69813        0.33034
H          2.19081       -0.62648       -0.22508
H         -0.06650        0.14308        1.70381
H          1.57325       -0.25009        2.18174
H          1.32740        2.16847        2.13949
H          2.48330        1.66296        0.92792
H          1.06388        3.42024        0.02159
H          0.83025        1.94774       -0.87794
H         -1.33052        2.96135       -0.54083
H         -1.28951        1.47619        0.36195
H         -2.35049        3.13910        1.74250
H         -0.82879        2.73661        2.48260
H         -1.13160        5.13799        2.59482
H          0.22562        4.80058        1.55889
H         -1.09738        6.55786        0.54332
H         -1.17478        5.15249       -0.47624
H         -3.39438        6.07864       -0.36003
H         -3.42724        4.55191        0.46324
H         -4.69139        6.13368        1.77943
H         -3.27545        5.69224        2.68800
H         -3.62714        8.08973        2.88959
H         -2.12930        7.80408        2.04670
H         -3.24193        9.58909        0.89061
H         -3.27641        8.21432       -0.16173
H         -5.45219        9.17577       -0.28515
H         -5.64229        7.68904        0.57562
H         -6.96323        9.48598        1.60331
H         -5.80594        8.80408        2.72976
H         -5.78989       11.14027        3.09971
H         -4.27076       10.84754        2.28312
H         -5.70318       13.35439       -1.02421
H         -5.19154       12.02591       -2.07789
H         -7.41813       10.83600       -1.45494
H         -7.71950       12.81057        0.19755
H         -8.77879       12.19024       -3.08780
H         -7.58790       13.48016       -3.02516
H         -6.33961       12.37030       -4.31020
