24

C          0.93123       -0.11507        0.07080
N          0.47317       -1.28250        0.80427
C         -0.06286       -1.03852        2.13587
C          0.79919       -2.53763        0.29610
O          1.54119       -2.69998       -0.67278
C          0.22677       -3.75564        0.92079
C          1.07032       -4.85278        1.14268
C          0.55700       -6.03807        1.67642
C         -0.80987       -6.12368        1.97538
N         -1.35664       -7.36901        2.53017
O         -0.59148       -8.33753        2.63746
O         -2.55040       -7.37460        2.86280
C         -1.66363       -5.03599        1.73718
C         -1.14335       -3.85519        1.19806
H          0.22516        0.70788        0.21430
H          1.01144       -0.32929       -0.99894
H          1.91632        0.17069        0.45170
H         -1.11345       -0.75085        2.03698
H          0.02393       -1.91639        2.77898
H          0.49107       -0.21878        2.60408
H          2.12682       -4.78541        0.88686
H          1.22782       -6.87939        1.84007
H         -2.72953       -5.09796        1.94895
H         -1.81124       -3.02605        0.97641
