170

C          1.19570       -0.40492       -0.28668
C          0.98371       -0.84518        1.15343
C          1.43311        0.21373        2.16284
C          0.69549        1.55026        2.03416
C         -0.82214        1.42845        2.20286
C         -1.23266        0.93391        3.59322
C         -0.79926        1.88536        4.71244
C         -1.40626        3.28377        4.56112
C         -2.93662        3.26433        4.63411
C         -3.44443        2.75558        5.98642
C         -2.94406        3.61869        7.14815
C         -3.42004        5.07027        7.02968
C         -4.94531        5.18525        7.09029
C         -5.50638        4.62711        8.39762
C         -4.97592        5.40045        9.60678
C         -5.44580        6.86703        9.64975
C         -6.92444        7.11669        9.30969
C         -7.88660        6.52581       10.31034
O         -8.98273        6.99889       10.54488
O         -7.34718        5.41559       10.85602
C         -7.84623        4.70695       11.99846
C         -7.38352        5.36221       13.30479
C         -7.76322        6.82011       13.54330
C         -9.25703        7.07455       13.71906
C         -9.86890        6.41551       14.95533
C         -9.41700        7.02990       16.27953
C         -9.77085        8.50534       16.39066
C         -9.30727        4.30508       11.84391
C         -9.45271        3.19699       10.78869
C         -8.97396        1.82491       11.27911
C         -9.61135        1.40120       12.60707
C        -11.14454        1.45848       12.58124
C        -11.75896        0.57036       11.49697
C        -11.32345       -0.88598       11.62404
C        -11.83091       -1.52170       12.91937
C        -13.34622       -1.78138       12.92951
C        -13.96732       -2.31332       11.62481
C        -13.40809       -3.62542       11.11025
O        -14.00125       -4.36016       10.33465
O        -12.18125       -3.85493       11.62236
C        -11.57417       -5.14820       11.55493
C        -11.82402       -5.85543       12.89948
C        -13.32595       -6.14155       13.13470
C        -14.01977       -7.03689       12.10092
C        -13.77401       -8.53567       12.25771
C        -14.24891       -9.10719       13.59314
C        -15.77146       -9.10447       13.74903
C        -16.51028       -9.94211       12.69851
C        -16.01194      -11.38414       12.56514
C        -16.11908      -12.17033       13.86240
C        -10.94640       -7.10799       13.04487
C         -9.48193       -6.83188       13.40196
C         -9.25649       -6.18683       14.77356
C         -9.82407       -6.97098       15.96291
C         -9.29724       -8.40430       16.10212
C         -7.77080       -8.52305       16.17176
C         -7.12306       -7.75655       17.32919
C         -7.51765       -8.25156       18.72415
C         -7.14890       -9.70768       19.01953
C         -5.65354       -9.97492       18.93759
H          0.58778        0.47016       -0.53637
H          0.91222       -1.20676       -0.97383
H          2.24646       -0.15461       -0.46261
H         -0.07042       -1.10233        1.30680
H          1.54992       -1.76559        1.33342
H          1.30743       -0.18652        3.17604
H          2.50803        0.39351        2.04557
H          1.10520        2.25177        2.76992
H          0.91012        2.00621        1.06201
H         -1.28097        2.40101        1.99306
H         -1.24086        0.75737        1.44629
H         -2.31909        0.79255        3.61374
H         -0.81713       -0.06028        3.78658
H         -1.07347        1.44802        5.67872
H          0.29164        1.96903        4.74676
H         -0.98790        3.94052        5.33109
H         -1.09665        3.74477        3.61822
H         -3.31815        4.27085        4.43230
H         -3.35912        2.64705        3.83512
H         -4.53900        2.72114        5.97021
H         -3.13816        1.71730        6.15080
H         -3.26597        3.17158        8.09403
H         -1.85129        3.60273        7.20636
H         -2.95316        5.66661        7.81960
H         -3.06377        5.52851        6.10210
H         -5.22890        6.23571        6.96725
H         -5.40944        4.66315        6.24670
H         -6.60074        4.64101        8.36177
H         -5.26084        3.56570        8.51006
H         -5.24821        4.86374       10.52010
H         -3.88211        5.38269        9.64332
H         -5.22921        7.26663       10.64776
H         -4.83682        7.44790        8.94696
H         -7.09192        8.19947        9.30751
H         -7.19053        6.74747        8.31490
H         -7.26790        3.77509       11.98529
H         -7.67911        4.73765       14.15489
H         -6.28328        5.33821       13.29403
H         -7.22498        7.17215       14.43119
H         -7.38264        7.43754       12.72288
H         -9.42576        8.15570       13.73732
H         -9.80800        6.72673       12.84652
H        -10.96024        6.49481       14.88175
H         -9.64904        5.34215       14.96598
H         -9.90650        6.48677       17.09595
H         -8.33850        6.89783       16.41857
H        -10.82909        8.67127       16.16406
H         -9.57540        8.86753       17.40351
H         -9.17278        9.11279       15.70436
H         -9.71732        3.99862       12.80875
H         -9.93215        5.13100       11.50600
H        -10.50536        3.13402       10.49046
H         -8.90595        3.46240        9.87585
H         -9.18840        1.08098       10.50238
H         -7.88436        1.81381       11.39070
H         -9.26442        0.39482       12.86627
H         -9.24157        2.03122       13.42332
H        -11.52726        1.18048       13.56848
H        -11.49251        2.48547       12.42852
H        -12.85078        0.64897       11.54406
H        -11.48131        0.93614       10.50202
H        -11.66392       -1.43649       10.74182
H        -10.23295       -0.97434       11.58345
H        -11.27923       -2.44961       13.10137
H        -11.57245       -0.91172       13.79108
H        -13.56685       -2.47603       13.74921
H        -13.85374       -0.84175       13.18287
H        -15.03520       -2.47486       11.81447
H        -13.88798       -1.57127       10.82428
H        -11.91344       -5.71655       10.68561
H        -10.50322       -4.96712       11.41952
H        -11.55976       -5.14762       13.69575
H        -13.46065       -6.53177       14.14842
H        -13.86002       -5.18352       13.15568
H        -15.09775       -6.84325       12.15204
H        -13.72990       -6.75441       11.08597
H        -14.26465       -9.05266       11.42600
H        -12.71609       -8.76853       12.13224
H        -13.86247      -10.12692       13.69267
H        -13.80481       -8.56074       14.43091
H        -16.02116       -9.47167       14.75088
H        -16.15110       -8.07648       13.71220
H        -17.57813       -9.94978       12.94676
H        -16.43588       -9.45266       11.71973
H        -16.60112      -11.88959       11.79178
H        -14.97412      -11.40082       12.21296
H        -17.15462      -12.19594       14.21457
H        -15.78196      -13.19955       13.70876
H        -15.49864      -11.73678       14.65265
H        -11.37120       -7.77826       13.79986
H        -10.94578       -7.65745       12.09696
H         -8.93830       -7.78335       13.35769
H         -9.02558       -6.19673       12.63509
H         -8.17851       -6.04253       14.91194
H         -9.68289       -5.17781       14.78469
H         -9.60839       -6.41316       16.88194
H        -10.91803       -7.00314       15.89606
H         -9.74407       -8.85722       16.99504
H         -9.65499       -9.00756       15.25922
H         -7.50239       -9.58393       16.22892
H         -7.33330       -8.16722       15.23190
H         -6.03420       -7.80646       17.21591
H         -7.37041       -6.69146       17.25413
H         -7.03507       -7.60623       19.46865
H         -8.59664       -8.12393       18.87009
H         -7.49356       -9.95466       20.03062
H         -7.67993      -10.38354       18.34056
H         -5.10131       -9.31203       19.61124
H         -5.43853      -11.00855       19.22523
H         -5.27290       -9.83041       17.92215
