30

O          1.28150        0.28279        0.00023
N          2.50232        0.11097        0.11853
C          3.00413       -1.11207       -0.64576
C          2.76744       -2.41173        0.15783
C          2.06679       -2.43910        1.38097
C          1.87168       -3.62951        2.09210
C          2.35939       -4.83072        1.59402
C          3.08209       -4.83279        0.40912
C          3.31118       -3.63479       -0.27658
C          2.49204       -1.08250       -2.13562
N          2.72821        0.29140       -2.75293
O          1.68249        0.82181       -3.14029
C          3.16225       -2.11364       -3.04435
C          2.44963       -3.25721       -3.44649
C          3.08197       -4.27161       -4.16857
C          4.42302       -4.14582       -4.52527
C          5.13225       -3.00034       -4.17294
C          4.51003       -1.99160       -3.43535
H          4.09192       -0.95119       -0.64579
H          1.66260       -1.53154        1.82567
H          1.33677       -3.61182        3.03866
H          2.19262       -5.75749        2.13592
H          3.48230       -5.76482        0.01715
H          3.93894       -3.69406       -1.16042
H          1.40556       -1.24845       -2.15091
H          1.40721       -3.38873       -3.16073
H          2.53068       -5.16844       -4.44054
H          4.91545       -4.94073       -5.07980
H          6.17467       -2.89598       -4.46498
H          5.09316       -1.11311       -3.16354
