22

C         -0.03318       -0.00493       -0.41060
C          0.08235        1.23422        0.39182
C          0.95448        2.24999        0.32332
C          2.08727        2.49660       -0.61398
C          3.42498        2.00989       -0.06803
C          3.50499        0.51124       -0.10777
O          3.68639       -0.17226       -1.10116
O          3.27897       -0.05909        1.08946
C          0.59369        3.20983        1.38234
O          1.17108        4.25447        1.61317
N         -0.47651        2.70441        2.02817
C         -0.83669        1.51366        1.50833
O         -1.74157        0.79012        1.87729
H         -0.99461       -0.03626       -0.93183
H          0.03982       -0.88598        0.23531
H          0.75671       -0.08043       -1.16318
H          1.87935        2.02484       -1.58209
H          2.15635        3.57271       -0.81623
H          4.24753        2.39290       -0.68338
H          3.60856        2.36720        0.95175
H          3.33761       -1.02293        0.91734
H         -0.93224        3.14513        2.80872
