49

O          1.12512        0.93295        1.22264
C          2.08129        0.33384        0.73840
C          2.73835        0.75499       -0.56151
C          3.81142        1.82463       -0.35650
C          5.15355        1.42675        0.28976
N          6.03239        0.57640       -0.53729
C          5.75828       -0.85314       -0.35445
C          6.60871       -1.71606       -1.28237
C          8.11583       -1.46728       -1.10717
O          8.54323       -1.99230        0.16030
C          8.89218       -2.27650       -2.15510
C          8.78304       -3.68522       -2.16081
C          9.43295       -4.46311       -3.12114
C         10.21472       -3.84290       -4.08276
F         10.83679       -4.58355       -5.00923
C         10.36358       -2.46347       -4.09468
C          9.70868       -1.68438       -3.13505
C          8.38470        0.04966       -1.12667
C          7.44669        0.83810       -0.20852
C          2.68243       -0.78008        1.49609
C          3.29589       -0.48686        2.71730
C          3.97170       -1.49005        3.40813
C          3.99665       -2.78850        2.89792
C          3.33806       -3.08878        1.70237
C          2.67806       -2.08272        0.99343
H          3.08767       -0.10300       -1.13522
H          1.93720        1.18536       -1.17798
H          4.02487        2.28824       -1.32819
H          3.37986        2.62152        0.26526
H          5.66410        2.38520        0.46240
H          5.01581        1.00439        1.28832
H          4.72598       -1.08340       -0.60162
H          5.91155       -1.15364        0.68929
H          6.31415       -1.51626       -2.32197
H          6.35681       -2.76355       -1.07441
H          8.04402       -1.55469        0.86646
H          8.18709       -4.18704       -1.40051
H          9.33432       -5.54338       -3.11948
H         10.98782       -1.99855       -4.85093
H          9.85563       -0.60919       -3.17839
H          9.41891        0.25401       -0.82151
H          8.25362        0.44781       -2.14098
H          7.66986        1.90303       -0.35063
H          7.65519        0.60723        0.84430
H          3.27367        0.52715        3.11030
H          4.47924       -1.25885        4.34138
H          4.52264       -3.57133        3.44009
H          3.34462       -4.10870        1.32441
H          2.17224       -2.31989        0.06135
