26

C          1.22860        0.27814       -0.03753
C          0.61416        0.43325       -1.42195
C          0.96027       -0.71757       -2.37576
C          0.48216       -2.09898       -1.98908
C         -0.71516       -2.32185       -1.30371
C         -1.11314       -3.61939       -0.97341
C         -0.33338       -4.71821       -1.34709
O         -0.76202       -5.96539       -0.98646
C          0.84702       -4.52788       -2.07063
O          1.72245       -5.46896       -2.54077
C          1.43415       -6.83665       -2.29356
C          1.23683       -3.21641       -2.38348
H          0.84451       -0.60534        0.48057
H          0.99006        1.15182        0.57759
H          2.31806        0.19421       -0.09875
H         -0.47110        0.55213       -1.33190
H          0.98854        1.36626       -1.86123
H          0.54281       -0.48894       -3.36454
H          2.05190       -0.73732       -2.49359
H         -1.35238       -1.49301       -1.00787
H         -2.04080       -3.75188       -0.42385
H         -1.56500       -5.87976       -0.44744
H          1.45246       -7.05777       -1.22180
H          0.49176       -7.13835       -2.76150
H          2.22807       -7.42968       -2.75877
H          2.15719       -3.07291       -2.94839
