78

O          1.11813        0.27852        0.48287
C          2.32070        0.01601        0.49314
N          3.24478        0.93959        0.94476
C          4.63216        1.04640        0.69672
C          5.29422        0.32001       -0.28819
C          6.67578        0.42849       -0.46956
C          7.43124        1.35515        0.24223
N          8.82173        1.55636        0.02237
C          9.64957        1.19942       -1.02472
O         10.87216        1.32408       -0.93491
C          9.08511        0.74511       -2.30817
C          9.33687       -0.57535       -2.69741
C          8.61184       -1.15310       -3.74934
C          8.81641       -2.49993       -4.09768
C          8.05757       -3.10569       -5.09910
C          7.08620       -2.37174       -5.76861
C          6.87505       -1.03030       -5.43913
C          7.62518       -0.38890       -4.42772
C          7.41002        0.96845       -4.05204
N          6.37026        1.71638       -4.66180
N          5.41786        1.82719       -3.85317
C          4.35036        2.56065       -4.40696
C          3.15527        1.87363       -4.67742
C          2.04051        2.55828       -5.16540
Cl         0.57535        1.71340       -5.47863
C          2.09257        3.93256       -5.39002
C          3.26769        4.63144       -5.11366
C          4.38856        3.95389       -4.61567
Cl         5.78413        4.90524       -4.24126
C          8.19125        1.54252       -3.02895
O          7.99321        2.86609       -2.71952
C          6.76228        2.10156        1.23038
Cl         7.61800        3.25140        2.20324
C          5.37884        1.95500        1.45174
C          2.74137       -1.32626        0.03234
C          3.60353       -2.09597        0.83235
C          4.19696       -3.27003        0.33275
C          5.13912       -3.99169        1.10058
C          5.77350       -5.13276        0.59655
C          5.46974       -5.57796       -0.68321
C          4.53356       -4.87681       -1.45490
C          3.87588       -3.70883       -0.97685
C          2.93046       -2.96140       -1.75449
N          2.66555       -3.37628       -3.08064
N          1.51766       -3.86320       -3.17599
C          1.34661       -4.42290       -4.45824
C          1.40034       -5.82108       -4.57099
C          1.23599       -6.43802       -5.81070
Cl         1.33331       -8.15139       -5.92922
C          1.00552       -5.67960       -6.95610
C          0.93389       -4.28904       -6.85655
C          1.09920       -3.66097       -5.61517
Cl         0.98677       -1.93777       -5.57123
C          2.36258       -1.77595       -1.23652
O          1.49727       -1.04383       -2.01744
H          2.80922        1.71109        1.44059
H          4.77832       -0.33530       -0.98066
H          7.10799       -0.25463       -1.18824
H          9.30964        2.07264        0.75034
H         10.05054       -1.17055       -2.12888
H          9.56285       -3.09956       -3.57889
H          8.22066       -4.15137       -5.35011
H          6.48750       -2.84104       -6.54574
H          6.10407       -0.48186       -5.97960
H          3.10039        0.80178       -4.49215
H          1.22139        4.46457       -5.76699
H          3.30121        5.70677       -5.27479
H          8.70192        3.18980       -2.13844
H          4.89778        2.55266        2.22294
H          3.86580       -1.73950        1.82859
H          5.40116       -3.66209        2.10577
H          6.50247       -5.67271        1.20071
H          5.95736       -6.46784       -1.08188
H          4.32304       -5.25410       -2.45608
H          1.57994       -6.42088       -3.68113
H          0.88538       -6.16126       -7.92448
H          0.75196       -3.69699       -7.75046
H          0.95792       -0.46466       -1.43797
