42

C          0.85589       -0.05527       -0.36846
C          0.32583       -1.48187       -0.39018
C          0.74942       -2.32135        0.81322
O          0.27517       -1.75295        2.04666
C          1.18951       -1.00542        2.72500
O          2.32311       -0.78916        2.32603
C          0.62126       -0.50476        4.04089
C          1.02286       -1.45625        5.17418
C          0.57935       -0.95877        6.54762
C          0.97757        0.48960        6.80646
C          0.47933        1.41478        5.69861
C          0.96544        0.97480        4.31118
C          2.41876        1.40793        4.14106
O          2.72984        2.53589        3.77563
O          3.29198        0.45033        4.53541
C          4.69193        0.73910        4.39899
C          5.24449        0.22036        3.07193
C          4.89542        1.10552        1.88306
H          0.43928        0.51239        0.46932
H          0.57412        0.46451       -1.28967
H          1.94776       -0.03831       -0.29367
H         -0.76815       -1.44047       -0.43319
H          0.67318       -1.97604       -1.30478
H          0.29940       -3.31684        0.73225
H          1.83514       -2.47949        0.82072
H         -0.47499       -0.54703        3.95326
H          0.58056       -2.44456        4.99409
H          2.10645       -1.61988        5.17762
H          1.01058       -1.60088        7.32431
H         -0.51038       -1.05139        6.63038
H          2.06760        0.56384        6.89638
H          0.56418        0.81627        7.76757
H          0.80076        2.44121        5.91355
H         -0.61825        1.42133        5.70817
H          0.42120        1.56194        3.55626
H          4.90705        1.80301        4.54775
H          5.18567        0.20042        5.21535
H          6.33628        0.16110        3.14225
H          4.87416       -0.79363        2.88330
H          5.27765        2.12059        2.02812
H          5.34346        0.70160        0.96956
H          3.81750        1.16927        1.71709
