29

C          1.27632       -0.31814        0.23937
C          0.60856        0.85139        0.88910
C         -0.18424        1.85000        0.43669
C         -0.82007        2.77471        1.47807
C         -0.23076        4.19127        1.58707
C         -0.72565        5.22886        0.57528
C         -2.22818        5.47599        0.62357
C         -0.60682        2.12346       -0.97332
O          0.21183        1.64794       -1.92866
N         -1.64005        2.83331       -1.26700
C         -1.92839        3.23566       -2.51775
N         -1.45085        2.81894       -3.62917
O         -2.81998        4.22616       -2.56321
H          1.01920       -0.47424       -0.80755
H          0.98859       -1.23147        0.77248
H          2.36315       -0.21547        0.32915
H          0.79127        0.83428        1.96673
H         -1.90631        2.79733        1.34388
H         -0.69327        2.31841        2.47066
H         -0.46364        4.57308        2.59001
H          0.86374        4.13849        1.52993
H         -0.22309        6.18099        0.78728
H         -0.41886        4.95219       -0.43702
H         -2.52235        5.90332        1.58711
H         -2.51730        6.18205       -0.16162
H         -2.80933        4.56382        0.46906
H          1.04349        1.30649       -1.57262
H         -0.76783        2.08985       -3.38431
H         -2.91531        4.45117       -3.50082
