19

C          1.02546        0.01242        0.08020
N          0.42561        1.33718        0.19461
C          0.66087        1.98519        1.28740
N          1.44462        1.44253        2.27538
C          1.57057        2.14435        3.35414
N          2.35550        1.60931        4.34921
C          2.48329        2.26687        5.45047
C          1.82007        3.58183        5.70059
N          1.08120        4.17590        4.82315
C          0.94394        3.49655        3.64093
C          0.22984        3.94547        2.60122
N          0.10709        3.22480        1.44837
H          0.71616       -0.43346       -0.87051
H          0.68428       -0.65767        0.87681
H          2.11930        0.06408        0.07607
H          3.09972        1.88765        6.27963
H          2.00384        4.02015        6.69341
H         -0.29324        4.89441        2.62236
H         -0.48164        3.55784        0.69720
