63

O          1.27853        0.25473        0.62360
C          2.35200        0.09559        0.06262
O          3.03439        1.10968       -0.54659
C          4.28957        0.67195       -1.08945
C          5.47811        1.49649       -0.58276
O          6.64028        1.17202       -1.35453
C          5.22949        3.00699       -0.69657
O          4.27372        3.46112        0.25356
C          4.41121       -0.75864       -0.63740
O          5.41503       -1.44265       -0.81078
C          3.12443       -1.20849       -0.01120
N          3.31549       -1.76632        1.34501
C          3.02529       -3.13532        1.48799
C          2.22817       -3.55316        2.56230
C          1.96127       -4.90633        2.77729
C          2.51108       -5.86751        1.92588
S          2.18235       -7.57112        2.32143
O          2.85168       -7.83562        3.58132
O          0.74296       -7.72311        2.19843
C          2.91950       -8.66352        1.13178
C          2.11544       -9.52429        0.38906
C          2.70083      -10.38790       -0.54271
C          4.06876      -10.34494       -0.81862
N          4.70179      -11.13027       -1.77587
C          4.02913      -11.76678       -2.92409
C          3.18999      -12.98160       -2.60192
O          3.50403      -13.93564       -1.90892
O          1.99435      -12.91396       -3.27472
C          1.83339      -11.68899       -4.01804
C          0.55378      -10.94033       -3.62472
O          0.38336       -9.78830       -4.45467
C         -0.69734      -11.82216       -3.75635
O         -0.69593      -12.90775       -2.83932
C          3.06872      -10.89682       -3.67689
O          3.25438       -9.73136       -4.01087
C          4.86512       -9.54059        0.01505
C          4.30460       -8.71254        0.99358
C          3.30470       -5.47511        0.84810
C          3.57077       -4.11268        0.64540
H          4.21488        0.68932       -2.18195
H          5.68576        1.25909        0.46819
H          6.86556        0.23627       -1.17226
H          6.16241        3.55291       -0.51751
H          4.89569        3.28236       -1.70359
H          3.40064        3.11303       -0.00587
H          2.59468       -1.87009       -0.70606
H          2.77584       -1.23128        2.03111
H          1.79847       -2.82626        3.24812
H          1.33507       -5.20526        3.61624
H          1.03803       -9.55655        0.54170
H          2.04455      -11.09725       -1.02827
H          5.59884      -10.73056       -2.04760
H          4.79040      -12.09980       -3.63995
H          1.85483      -11.92685       -5.08692
H          0.61093      -10.60117       -2.58636
H          1.12944       -9.17823       -4.27953
H         -1.59165      -11.22215       -3.55460
H         -0.80556      -12.20893       -4.77569
H          0.02824      -13.51549       -3.08000
H          5.94871       -9.55460       -0.08949
H          4.95260       -8.11430        1.63044
H          3.74760       -6.19093        0.16418
H          4.24278       -3.82984       -0.16232
