31

C          0.78976        0.91252       -0.32184
C          0.06542       -0.09157       -1.18182
O         -0.97691       -0.60606       -0.77254
N          0.62526       -0.40981       -2.41169
C          1.84498        0.18828       -2.93849
C          0.07079       -1.54417       -3.15932
C          0.77023       -2.88411       -2.86908
O          0.39752       -3.43072       -1.59233
C          1.17105       -3.06081       -0.54400
O          2.16807       -2.35891       -0.56472
C          0.58332       -3.60616        0.69128
C          0.13069       -2.72059        1.67321
C         -0.40103       -3.21931        2.86193
C         -0.46105       -4.59746        3.07348
C          0.00100       -5.48060        2.09462
C          0.52110       -4.98751        0.89647
H          0.30249        0.96441        0.65710
H          0.75014        1.90300       -0.78051
H          1.82426        0.59838       -0.15823
H          2.63541       -0.56606       -2.96538
H          1.64510        0.54106       -3.95500
H          2.18956        1.03809       -2.34845
H         -0.99658       -1.63819       -2.93112
H          0.15895       -1.30761       -4.22601
H          0.43798       -3.61516       -3.61455
H          1.85953       -2.81214       -2.96552
H          0.17480       -1.64772        1.50717
H         -0.76887       -2.53316        3.62066
H         -0.86992       -4.98349        4.00424
H         -0.04343       -6.55269        2.26880
H          0.88492       -5.67435        0.13759
