32

C          0.46711        0.27159       -0.33965
C          0.17660        1.56900        0.35147
O         -0.52817        2.41929       -0.20073
N          0.65984        1.84961        1.59252
C          1.54970        1.20979        2.47302
C          1.72417        1.82402        3.72130
C          2.64472        1.32684        4.64790
C          3.39046        0.18332        4.35045
S          4.62811       -0.30420        5.53741
O          5.24604        0.91048        6.02592
O          3.94537       -1.19370        6.45865
N          5.79937       -1.23645        4.83677
C          6.17944       -1.05615        3.52005
N          6.28165       -2.22557        2.87600
C          6.51123       -2.14640        1.55468
C          6.63639       -0.95320        0.88497
C          6.53786        0.18019        1.66353
N          6.30677        0.15782        2.99236
C          3.16841       -0.48183        3.14695
C          2.28187        0.05447        2.19877
H         -0.21463        0.16095       -1.18928
H          0.28308       -0.57354        0.32678
H          1.49026        0.27185       -0.72288
H          0.29181        2.74119        1.90894
H          1.15556        2.71227        3.99007
H          2.77825        1.84015        5.59911
H          5.74956       -2.21634        5.08770
H          6.57706       -3.09938        1.03710
H          6.80272       -0.91091       -0.18275
H          6.62950        1.16941        1.22265
H          3.68670       -1.40150        2.89945
H          2.22715       -0.45957        1.24948
