22

C          1.83132        1.47610       -0.05425
C          0.54409        0.69879        0.00772
C         -0.67304        1.40357        0.04486
C         -1.88999        0.72486        0.07049
C         -1.89013       -0.66731        0.04202
S         -3.41564       -1.55358        0.05613
N         -3.38225       -2.36323       -1.41489
O         -3.35055       -2.57183        1.07862
O         -4.51531       -0.62326       -0.04508
C         -0.68942       -1.38235        0.01232
C          0.53725       -0.70982        0.04352
N          1.71690       -1.45275       -0.11951
H          2.43567        1.27764        0.83683
H          2.39864        1.20383       -0.94997
H          1.64948        2.55534       -0.09565
H         -0.67747        2.49190        0.04252
H         -2.82108        1.28602        0.09742
H         -3.40234       -3.37051       -1.25591
H         -4.13693       -2.02393       -2.01174
H         -0.71289       -2.46846       -0.03165
H          1.65144       -2.40675        0.22233
H          2.55020       -0.98722        0.22428
