25

C          0.83015        0.19442        0.05916
C          0.75465       -0.25770        1.50669
O          1.32045        0.71936        2.39527
C          2.67143        0.74260        2.45807
O          3.45253        0.07632        1.79996
C          3.11002        1.75336        3.44787
C          4.32390        2.41679        3.22643
C          4.78269        3.35001        4.16602
N          6.04665        4.05793        3.92472
O          6.55493        3.95625        2.80091
O          6.51938        4.71718        4.85956
C          4.05296        3.61496        5.33309
C          2.84560        2.93489        5.54539
N          2.07944        3.18218        6.77524
O          2.54854        3.98713        7.58992
O          1.01490        2.56737        6.92067
C          2.36508        2.00970        4.60688
H          0.38453        1.18673       -0.06174
H          0.30634       -0.51197       -0.59157
H          1.86771        0.26671       -0.28098
H         -0.29539       -0.37323        1.79535
H          1.23813       -1.23079        1.65048
H          4.89772        2.19753        2.32532
H          4.42047        4.33499        6.06403
H          1.43172        1.47487        4.77936
