25

O          1.23134       -0.23805        0.24478
C          2.44784       -0.05632        0.17830
N          3.24489       -0.82483        0.99306
C          4.57959       -0.74911        1.40601
C          5.31487        0.42564        1.38066
C          6.70132        0.41038        1.54422
C          7.33966       -0.77804        1.87700
C          6.57429       -1.91942        2.10147
Cl         7.34150       -3.36291        2.63578
C          5.19610       -1.91004        1.87357
O          2.93295        0.86278       -0.69301
C          4.16184        0.80977       -1.44951
C          4.87832        2.06498       -1.17212
C          5.36059        3.03479       -0.64253
C          5.85655        4.04828        0.28975
Cl         4.75509        5.43150        0.31472
H          2.69661       -1.57775        1.39300
H          4.80088        1.36652        1.23092
H          7.27933        1.32030        1.40632
H          8.42040       -0.80097        1.98627
H          4.62420       -2.82198        2.01812
H          4.75350       -0.08017       -1.21851
H          3.90362        0.75406       -2.51263
H          5.88226        3.63956        1.30683
H          6.86184        4.39026        0.03740
