26

O          0.77044        0.75279        0.53457
C          1.64734       -0.03332        0.22769
O          2.52319        0.26985       -0.75118
C          1.95279       -1.34182        0.85872
S          2.08947       -1.16142        2.61441
O          0.75121       -0.98455        3.14600
O          2.89663       -2.26166        3.10858
C          2.99666        0.34050        2.95472
C          4.50934        0.20064        2.93797
S          5.33007        0.83064        1.47674
O          4.40132        1.72575        0.80718
O          6.61204        1.35058        1.91660
C          5.67090       -0.48943        0.35402
C          6.01413       -1.74667        1.04792
O          5.23191       -2.66252        1.23952
O          7.28759       -1.83501        1.45226
H          2.34788        1.21566       -0.96625
H          1.15848       -2.05820        0.63556
H          2.89620       -1.74465        0.48845
H          2.60432        1.15628        2.34806
H          2.70401        0.57456        3.98752
H          4.88930        0.86096        3.73071
H          4.88669       -0.79194        3.17982
H          4.79341       -0.66178       -0.26932
H          6.48333       -0.18680       -0.31238
H          7.37818       -2.72475        1.85979
