22

Cl         1.02922        0.07788       -0.06753
C          2.74850        0.01345       -0.07052
C          3.48467        1.19982       -0.07201
C          4.88035        1.15089       -0.07438
C          5.52668       -0.08427       -0.07524
C          4.78611       -1.26436       -0.07378
C          3.39316       -1.22251       -0.07141
O          5.38504       -2.49743       -0.07458
C          6.75734       -2.49298       -0.07664
C          7.38999       -3.73261       -0.07727
C          8.78521       -3.80057       -0.07926
Cl         9.49333       -5.37963       -0.07989
C          9.55601       -2.62600       -0.08066
Cl        11.29091       -2.72174       -0.08308
C          8.90823       -1.37761       -0.08005
Cl         9.81090        0.10714       -0.08170
C          7.50635       -1.31616       -0.07804
O          6.89675       -0.08294       -0.07749
H          2.97873        2.16211       -0.07131
H          5.45903        2.07100       -0.07554
H          2.82049       -2.14525       -0.07026
H          6.79246       -4.64153       -0.07617
