25

O         -2.19865        0.02591        0.32915
C         -0.98135        0.02195        0.20575
C         -0.21982       -1.24733        0.13279
C          1.10639       -1.24072       -0.06514
C          1.91970        0.01475       -0.25412
N          2.55577        0.01690       -1.59110
N          1.73022        0.02556       -2.53301
C          2.34613       -0.00988       -3.79610
C          1.81686        0.79467       -4.81179
C          2.33828        0.74975       -6.10653
C          3.39521       -0.10943       -6.39994
C          3.93067       -0.92069       -5.40092
C          3.40559       -0.87362       -4.10698
C          1.11568        1.27316       -0.04988
C         -0.21015        1.28645        0.15049
H         -0.79182       -2.16119        0.23345
H          1.64152       -2.18370       -0.12703
H          2.72133        0.00702        0.49438
H          0.98251        1.45584       -4.59041
H          1.91245        1.37762       -6.88483
H          3.79652       -0.15237       -7.40933
H          4.74936       -1.59786       -5.62977
H          3.81634       -1.52454       -3.34004
H          1.65861        2.21257       -0.09737
H         -0.77521        2.20271        0.26695
