28

C          1.11754        0.04082        0.06294
C          0.64904        0.23331       -1.37061
C          1.09017       -0.90347       -2.24857
C          0.22834       -1.71882       -2.87712
C          0.60732       -2.86959       -3.76356
C          0.25746       -4.22602       -3.24201
C          0.77030       -5.41861       -3.59433
C          1.81602       -5.68078       -4.62799
C          0.17322       -6.59594       -2.88136
C         -0.80347       -5.99811       -1.88606
C         -0.78094       -4.53945       -2.23196
O         -1.54339       -3.72422       -1.73462
H          0.72527       -0.89018        0.48624
H          0.77034        0.86947        0.68845
H          2.21066        0.00857        0.12090
H         -0.44283        0.33516       -1.37909
H          1.05875        1.16855       -1.76835
H          2.16178       -1.05193       -2.35873
H         -0.84142       -1.54725       -2.75850
H          0.11089       -2.72655       -4.73101
H          1.68644       -2.82586       -3.95892
H          2.68292       -6.17184       -4.17519
H          1.41607       -6.33683       -5.40837
H          2.16422       -4.76594       -5.11520
H         -0.34682       -7.25228       -3.58812
H          0.94021       -7.18584       -2.36883
H         -0.46674       -6.13895       -0.85477
H         -1.80996       -6.40510       -2.01554
