15

Cl         1.15800       -0.41117       -0.08785
C          2.88788       -0.00874       -0.02622
C          3.30618        0.71111       -1.27986
C          3.81266        0.01277       -2.39234
Cl         4.01197       -1.70614       -2.38810
C          4.18096        0.68481       -3.56462
C          4.04183        2.06599       -3.65613
C          3.53204        2.77576       -2.57420
C          3.16553        2.10738       -1.39963
Cl         2.53620        3.08127       -0.11487
H          3.07241        0.59023        0.87073
H          3.44541       -0.93663        0.12877
H          4.57359        0.13112       -4.41494
H          4.32357        2.58565       -4.56860
H          3.41619        3.85501       -2.65083
