49

C          0.61013       -0.37987       -0.13083
C          0.10145        0.18111       -1.42665
O          0.00918       -0.45013       -2.47302
O         -0.10253        1.50982       -1.29156
C         -0.03104        2.33211       -2.46431
C         -1.39109        2.64302       -3.04939
C         -1.18381        3.96532       -3.77553
C         -0.14901        4.80452       -2.96037
C         -0.89959        6.01076       -2.21714
C         -0.26866        7.42691       -2.41524
C         -0.84472        8.55828       -1.47569
C         -1.58707        8.14033       -0.21266
C         -1.85952        9.02094        0.84149
C         -2.50370        8.54687        1.99212
O         -2.62081        9.31259        3.11616
C         -3.00808        7.25463        2.06059
C         -2.74397        6.37305        1.02517
C         -1.92243        6.79021       -0.02811
C         -0.97212        5.84660       -0.70383
C         -0.89536        4.43191       -0.19246
C          0.49860        3.98441       -0.57317
C          0.60270        3.70803       -2.07982
C          2.12159        3.57125       -2.34281
H          0.30431       -1.42299       -0.02905
H          0.20610        0.17785        0.72007
H          1.70197       -0.30671       -0.11986
H          0.57454        1.83839       -3.23594
H         -1.70432        1.85320       -3.74232
H         -2.17367        2.70304       -2.28889
H         -2.14334        4.46930       -3.92839
H         -0.77760        3.76300       -4.77478
H          0.54977        5.23986       -3.68797
H         -1.91500        6.09336       -2.62909
H          0.81148        7.35797       -2.22643
H         -0.36490        7.75140       -3.45955
H         -0.00699        9.20537       -1.18335
H         -1.53075        9.18012       -2.06528
H         -1.50678       10.04611        0.79739
H         -1.98685       10.04470        3.05095
H         -3.51441        6.90336        2.95506
H         -3.04983        5.33497        1.12400
H         -0.02559        6.27065       -0.32705
H         -0.97493        4.39617        0.89780
H         -1.69614        3.80689       -0.58943
H          0.80511        3.13686        0.04563
H          1.22890        4.76674       -0.31321
H          2.34745        3.12166       -3.31439
H          2.64048        4.53111       -2.27462
H          2.56669        2.90720       -1.58495
