30

N          1.06079        0.17054       -0.04963
C          0.40760        0.90219        0.87301
O         -0.81396        0.88397        0.95173
N          1.15633        1.63297        1.72600
C          2.60522        1.76155        1.80808
C          3.07731        2.99022        1.02167
C          4.58483        3.21328        1.15848
C          5.05773        3.24784        2.61790
N          4.64088        4.47994        3.27528
C          5.52960        5.42167        3.69669
N          4.91413        6.48302        4.27637
O          6.74451        5.36281        3.59622
C          4.54948        2.03285        3.40075
C          3.03931        1.84497        3.27442
H          0.44189       -0.28979       -0.70495
H          1.89365        0.56208       -0.45910
H          0.58695        2.17136        2.36775
H          3.06031        0.86642        1.36741
H          2.82346        2.87599       -0.03945
H          2.54037        3.88317        1.36684
H          4.86280        4.14223        0.64603
H          5.10436        2.39767        0.63917
H          6.15382        3.21464        2.61855
H          3.68159        4.78177        3.19259
H          5.57014        7.13094        4.69600
H          4.10839        6.28160        4.84937
H          4.81701        2.12485        4.46031
H          5.04989        1.13162        3.02411
H          2.51884        2.67065        3.77666
H          2.74174        0.93026        3.80182
