19

N          2.31323       -0.05704       -0.16598
C          0.92427       -0.01772        0.00096
C          0.18102       -1.20266       -0.01999
C         -1.21558       -1.17117        0.01008
C         -1.87474        0.05963        0.00939
S         -3.64076        0.09396        0.02919
N         -4.02823       -0.61855       -1.44199
O         -4.11211       -0.80908        1.05232
O         -4.09834        1.46018       -0.07468
C         -1.15053        1.25168       -0.01859
C          0.24615        1.20518       -0.04583
H          2.74561       -0.90773        0.18072
H          2.79071        0.77660        0.16270
H          0.68689       -2.16403       -0.06032
H         -1.77790       -2.10146        0.01581
H         -4.56902       -1.46868       -1.28278
H         -4.49457        0.06206       -2.04227
H         -1.65657        2.21405       -0.03614
H          0.80362        2.13674       -0.10503
