19

N          1.17899       -0.26829        0.24150
C          0.37947        0.23680        1.20165
N         -0.87393       -0.24644        1.05126
N          0.84021        1.08813        2.03200
C          0.01633        1.61902        3.11599
C         -0.60849        2.95739        2.77069
S         -2.12072        2.81049        1.83735
O         -2.78361        1.56670        2.17137
O         -2.81620        4.07730        1.86510
O         -1.49228        2.61944        0.36177
H          0.75259       -0.33502       -0.67372
H          2.06455        0.22857        0.20464
H         -1.51431       -0.08746        1.83084
H         -0.87156       -1.23820        0.82562
H         -0.71369        0.89246        3.48731
H          0.70041        1.78310        3.95820
H         -0.90252        3.45861        3.70063
H          0.07050        3.62391        2.23108
H         -1.39171        1.65535        0.18872
