24

C         -2.47880       -1.02214       -0.09265
N         -1.20972       -0.30580       -0.03010
C         -1.13734        1.08095       -0.03099
N         -2.29852        1.85957        0.00580
C          0.07415        1.69510       -0.04837
N          0.12959        3.07828       -0.15323
C          1.18351        3.93789       -0.07686
O          1.02792        5.14654       -0.23289
C          1.31555        0.85609        0.01554
O          2.43027        1.37393        0.06205
N          1.14066       -0.51013        0.01641
C          2.31024       -1.37091        0.04319
C         -0.08982       -1.13485        0.00184
O         -0.18973       -2.36451        0.02391
H         -2.43957       -1.75322       -0.90826
H         -2.61970       -1.56462        0.84881
H         -3.34474       -0.38469       -0.27296
H         -3.07968        1.37255        0.43207
H         -2.16399        2.73381        0.50868
H         -0.72997        3.55228       -0.39978
H          2.16315        3.51319        0.16030
H          2.28039       -1.98094        0.95200
H          2.27929       -2.04061       -0.82293
H          3.24861       -0.81148        0.02170
