23

O          1.38158        1.39215       -0.62295
C          2.35307        0.79630       -0.17451
O          2.83908       -0.32794       -0.75785
C          4.20633       -0.77271       -0.60395
C          4.95078       -0.47536       -1.90175
O          4.95555        0.92775       -2.16151
C          3.06263        1.32672        0.99986
C          3.87052        2.45761        0.83682
C          4.54002        2.99037        1.93805
C          4.38621        2.40693        3.19732
C          3.56412        1.28855        3.36270
C          2.90157        0.74829        2.26093
O          2.10236       -0.34765        2.41432
H          4.71437       -0.29774        0.23782
H          4.18222       -1.85124       -0.42130
H          5.98875       -0.81335       -1.83419
H          4.47413       -0.97129       -2.75346
H          4.03743        1.16190       -2.39752
H          3.98436        2.91502       -0.14333
H          5.17859        3.86214        1.81493
H          4.90708        2.82880        4.05421
H          3.45761        0.85427        4.35254
H          1.95198       -0.50433        3.36193
