14

C          1.28736        0.16110       -0.10627
C          0.57698       -1.13976        0.21272
C         -0.84029       -0.86975       -0.24353
N         -1.07672        0.51806        0.16687
C          0.19662        1.22225       -0.04345
H          2.10413        0.35830        0.59468
H          1.70882        0.11916       -1.11762
H          0.60339       -1.32717        1.29316
H          1.02855       -1.99661       -0.29535
H         -0.92771       -0.95550       -1.33263
H         -1.56144       -1.55375        0.21354
H         -1.28317        0.52481        1.16624
H          0.37652        1.92926        0.77349
H          0.16130        1.79590       -0.97564
