17

O          1.15160        0.00885        0.17316
C          2.35243       -0.05760       -0.02521
O          3.18146       -0.87260        0.65484
C          3.04406        0.79926       -1.01473
C          2.61348        2.12513       -1.16279
C          3.23382        2.96529       -2.09143
C          4.27363        2.48077       -2.88243
F          4.86586        3.32782       -3.73369
C          4.68141        1.15482       -2.75556
N          5.76083        0.64176       -3.58538
O          6.42626       -0.29297       -3.11525
O          5.93227        1.13873       -4.70391
C          4.07144        0.29932       -1.82311
H          4.13682       -0.71613        0.53544
H          1.79339        2.50499       -0.55318
H          2.91114        3.99765       -2.20255
H          4.37110       -0.74476       -1.75248
