21

C          0.93359        0.12192       -0.08915
C          0.54433       -1.31895       -0.38223
C          1.01220       -2.30595        0.69018
C          0.43343       -2.08053        2.09100
C         -1.09601       -2.12791        2.18741
C         -1.72471       -3.44968        1.75795
O         -1.29209       -4.51567        2.59069
H          0.42898        0.50100        0.80425
H          0.65050        0.76587       -0.92802
H          2.01444        0.21415        0.05766
H         -0.54034       -1.38572       -0.51873
H          0.99430       -1.61121       -1.33883
H          0.77683       -3.32353        0.35725
H          2.10645       -2.25888        0.75920
H          0.86223       -2.83036        2.76695
H          0.77535       -1.11148        2.47361
H         -1.36369       -1.94086        3.23504
H         -1.53275       -1.31249        1.60068
H         -2.81348       -3.38297        1.85040
H         -1.49894       -3.69686        0.71648
H         -0.35122       -4.67419        2.40468
