20

C          1.01168       -0.06262        0.12255
N          0.47666       -1.38839        0.29312
C         -0.31325       -1.83705        1.31845
O         -0.69594       -3.00263        1.32906
O         -0.59229       -0.87359        2.25587
N         -1.40411       -1.39806        3.27715
C         -1.69017       -0.51734        4.18330
C         -1.23170        0.91760        4.19035
S         -2.70641       -1.09147        5.50399
C         -2.91211        0.34356        6.56661
H          0.71958        0.60963        0.93142
H          0.64789        0.33001       -0.83029
H          2.10123       -0.13884        0.08420
H          0.67986       -2.10120       -0.39527
H         -2.09744        1.58521        4.16895
H         -0.63801        1.11440        5.08727
H         -0.60952        1.16302        3.32738
H         -1.95042        0.68681        6.95591
H         -3.41164        1.15820        6.03646
H         -3.53835        0.06513        7.41911
