55

C          0.69098        0.04202        0.22273
N          0.02753       -1.21029       -0.14043
C         -0.58157       -1.93857        1.00463
C         -1.98315       -2.41653        0.70361
C         -2.96556       -1.53124        0.30021
N         -4.16295       -1.93703       -0.18743
C         -4.36885       -3.25215       -0.32850
N         -5.48349       -3.63771       -0.93972
C         -5.64867       -4.93715       -1.15633
N         -6.77492       -5.32843       -1.84526
N         -4.81729       -5.89157       -0.74883
C         -3.70308       -5.48379       -0.12584
N         -2.84265       -6.50735        0.31092
C         -3.39566       -4.15190        0.12214
N         -2.21224       -3.75039        0.67348
C          0.60913       -1.99334       -1.15314
C         -0.08899       -3.05199       -1.75463
C          0.48224       -3.88335       -2.72738
C          1.78262       -3.66059       -3.17269
C          2.32606       -4.61092       -4.18174
O          1.55378       -5.12367       -4.99178
N          3.64261       -5.00444       -4.21178
C          4.81741       -4.44325       -3.54194
C          5.79389       -5.52397       -3.05569
C          6.40191       -6.43281       -4.11851
C          7.49608       -5.75516       -4.89259
O          8.56265       -5.37467       -4.44866
O          7.17488       -5.56144       -6.18376
C          5.49787       -3.38418       -4.42205
O          6.40637       -2.64629       -4.07707
O          5.02659       -3.33386       -5.68527
C          2.44687       -2.53451       -2.69197
C          1.88375       -1.74032       -1.67732
H          0.05846        0.62756        0.89929
H          0.85858        0.66896       -0.66038
H          1.64428       -0.14205        0.73065
H          0.05689       -2.78020        1.30425
H         -0.64734       -1.28305        1.88312
H         -2.79893       -0.45882        0.29585
H         -7.02338       -6.27987       -1.61609
H         -7.49453       -4.62209       -1.77975
H         -1.87227       -6.27303        0.11983
H         -3.14603       -7.38879       -0.08993
H         -1.12593       -3.24606       -1.51669
H         -0.11232       -4.69487       -3.14440
H          3.82259       -5.51756       -5.06881
H          4.48152       -3.93418       -2.63892
H          6.59985       -5.03755       -2.49072
H          5.25611       -6.16217       -2.34202
H          6.86488       -7.30055       -3.63227
H          5.64324       -6.83435       -4.79689
H          7.96689       -5.12366       -6.56215
H          5.55150       -2.63955       -6.13397
H          3.40246       -2.22233       -3.09315
H          2.48829       -0.91632       -1.30976
