22

Cl        -2.08860       -0.01444        0.01745
C         -0.36745       -0.00963        0.00480
C          0.32571       -1.21710       -0.00838
C          1.71880       -1.21081       -0.02172
C          2.41123        0.00333       -0.02308
C          1.72480        1.22973       -0.00824
C          2.45683        2.50496       -0.00900
C          2.27021        3.44509        1.01900
C          2.96488        4.65795        1.02200
C          3.85691        4.95123       -0.00717
C          4.05051        4.02988       -1.03297
Cl         5.14913        4.39123       -2.30772
C          3.36069        2.81654       -1.03773
C          0.32071        1.20467        0.00635
H         -0.21122       -2.16184       -0.00846
H          2.26776       -2.14920       -0.02900
H          3.50010       -0.01294       -0.02425
H          1.58436        3.23053        1.83722
H          2.81013        5.37056        1.82837
H          4.39542        5.89506       -0.00403
H          3.51856        2.11449       -1.85355
H         -0.23950        2.13715        0.00662
