14

O          1.19948        0.04644       -0.00056
C          0.60838       -0.32759       -1.24627
C          1.10075        0.60345       -2.35630
O          2.53424        0.58870       -2.36751
C          0.57832        0.18306       -3.73182
O         -0.83934        0.26424       -3.80859
H          2.12389       -0.25890       -0.03801
H          0.88780       -1.36800       -1.44504
H         -0.47868       -0.27351       -1.13688
H          0.78019        1.62895       -2.13632
H          2.81010        1.18489       -1.64716
H          0.99599        0.84277       -4.50031
H          0.89882       -0.83311       -3.98929
H         -1.20590       -0.57851       -3.49030
