42

C          2.65169        0.22469        0.06181
C          1.14345        0.16595        0.00914
C          0.43271       -1.06393        0.02026
C          0.99395       -2.45981       -0.13262
O          0.23775       -3.34471       -0.53394
C          2.39695       -2.75818        0.00741
C          3.26406       -2.67808        1.11649
N          4.52975       -2.96573        0.79836
N          4.46119       -3.30403       -0.50708
C          5.67149       -3.60121       -1.23374
C          3.18548       -3.27369       -1.00460
O          2.89638       -3.65252       -2.24637
C         -0.97808       -1.02384        0.06270
C         -1.68629        0.17759        0.05294
C         -1.00159        1.39073       -0.02237
S         -1.99100        2.87047       -0.10100
C         -3.08859        2.59383       -1.46886
O         -2.78723        2.90330        1.10846
O         -1.16092        3.98881       -0.49918
C          0.39967        1.38904       -0.02273
C          1.15154        2.65150        0.00217
N          1.51869        3.21596        1.10408
O          2.31702        4.32778        0.74223
C          2.15212        4.56372       -0.66178
C          1.66674        3.26471       -1.24988
H          2.99731       -0.13002        1.03509
H          3.09106       -0.34218       -0.76156
H          3.07180        1.22670       -0.03107
H          3.03950       -2.38225        2.13395
H          6.19414       -2.65836       -1.41680
H          6.28928       -4.27076       -0.63124
H          5.42673       -4.08053       -2.18437
H          1.92442       -3.76504       -2.28883
H         -1.55279       -1.95200        0.09162
H         -2.77283        0.14210        0.11018
H         -3.74068        1.74455       -1.26377
H         -3.69686        3.49287       -1.59608
H         -2.49600        2.42372       -2.37021
H          1.43155        5.37523       -0.80120
H          3.11248        4.86764       -1.08943
H          0.90902        3.39424       -2.02395
H          2.49408        2.67096       -1.64783
