19

C          2.98697        0.03356        0.04549
C          1.48745       -0.01367        0.01300
C          0.75236        1.17856        0.01136
C         -0.64291        1.15071       -0.01115
C         -1.31517       -0.06867       -0.03272
O         -2.68367       -0.00136       -0.04848
C         -0.59851       -1.27284       -0.03713
C         -1.33306       -2.55661       -0.06647
O         -2.54943       -2.65306       -0.06080
O         -0.53892       -3.63909       -0.10833
C          0.80450       -1.23843       -0.01321
H          3.36683        0.56678       -0.83183
H          3.32765        0.54288        0.95272
H          3.42117       -0.97159        0.04190
H          1.26375        2.13897        0.02927
H         -1.20687        2.07992       -0.01059
H         -3.04518       -0.91408       -0.04951
H         -1.15756       -4.39904       -0.13157
H          1.37105       -2.16734       -0.01349
