30

C          1.72006        0.02735        0.08263
C          1.23735        0.38439       -1.29654
O          1.21173       -0.46867       -2.18822
C          0.87511        1.81074       -1.59975
C          0.22336        2.57730       -0.47783
O          0.91369        3.12785        0.38438
N         -1.13138        2.76390       -0.45802
C         -2.15315        2.07091       -1.13199
C         -2.06308        0.69109       -1.34294
C         -3.08467       -0.01304       -1.98088
C         -4.23091        0.64988       -2.41009
C         -5.33322       -0.09461       -3.10139
C         -4.34949        2.02212       -2.16012
C         -3.32281        2.74634       -1.52110
C         -3.54502        4.21958       -1.30821
H          1.77666       -1.06213        0.16982
H          1.01612        0.38128        0.83874
H          2.71081        0.45452        0.24782
H          1.80205        2.33629       -1.86065
H          0.24596        1.84639       -2.49518
H         -1.41334        3.53099        0.14147
H         -1.23473        0.10942       -0.95926
H         -2.97658       -1.08637       -2.12324
H         -6.22920       -0.11090       -2.47353
H         -5.56841        0.38234       -4.05815
H         -5.04568       -1.13065       -3.31061
H         -5.25372        2.54081       -2.47653
H         -3.96998        4.67077       -2.21198
H         -4.23749        4.37526       -0.47513
H         -2.61964        4.76288       -1.09941
