26

C          1.05095        0.23088       -0.24196
C          0.45977       -1.08460       -0.75407
C          1.45568       -1.84507       -1.63055
C          2.44708       -2.62579       -0.79836
O          3.65323       -2.60087       -1.03907
C          1.86755       -3.54310        0.25563
C          0.90392       -2.79156        1.18925
C          1.69581       -1.90336        2.16612
C          0.12615       -3.82178        2.03518
C         -0.11880       -1.97541        0.36058
H          0.46014        0.64160        0.58294
H          1.05292        0.97550       -1.04623
H          2.08726        0.12579        0.08789
H         -0.38691       -0.79808       -1.39350
H          0.92875       -2.56544       -2.26709
H          1.99891       -1.15866       -2.28956
H          2.68867       -3.99473        0.82471
H          1.35218       -4.35418       -0.27352
H          1.02569       -1.26642        2.75387
H          2.27213       -2.51419        2.87109
H          2.41670       -1.26012        1.65811
H         -0.45855       -4.49869        1.40213
H          0.80596       -4.43692        2.63568
H         -0.56875       -3.32381        2.72110
H         -0.75028       -1.37334        1.02673
H         -0.80223       -2.68540       -0.12814
