20

C          0.94809        0.09739       -0.09190
C          0.43527       -0.25356        1.29810
C          0.43134       -1.71164        1.68503
C          0.82865       -2.73553        0.83099
C          0.77892       -4.05122        1.28357
C          0.33555       -4.31641        2.57303
C         -0.04754       -3.25000        3.37488
C         -0.53098       -3.47163        4.77565
N         -0.00286       -1.96534        2.94634
H          0.89698        1.17992       -0.24818
H          0.34642       -0.38057       -0.87205
H          1.99086       -0.21077       -0.22139
H         -0.59210        0.11959        1.39114
H          1.04125        0.28774        2.03524
H          1.17485       -2.53704       -0.17674
H          1.08419       -4.86495        0.63191
H          0.29157       -5.33687        2.93777
H          0.14167       -2.97691        5.48308
H         -1.53686       -3.05622        4.89187
H         -0.57116       -4.53585        5.02838
