32

C         -2.51913       -0.41469        0.24296
C         -1.03194       -0.27080        0.14709
C         -0.20662       -1.37058        0.06465
C          1.15314       -1.14449       -0.06327
C          2.18046       -2.25879       -0.13460
C          1.90413       -3.67342        0.31702
C          2.03689       -3.36999       -1.14787
N          1.62848        0.12090       -0.13885
C          0.76599        1.14476       -0.04448
N          1.31432        2.41519       -0.19841
C          0.73968        3.68397       -0.08363
C          1.17814        4.71447       -0.92691
C          0.57808        5.97710       -0.89535
C         -0.46636        6.23076       -0.01030
C         -0.91565        5.21973        0.83384
C         -0.32536        3.95389        0.78412
N         -0.55389        0.98333        0.10867
H         -2.89372        0.14144        1.10786
H         -2.98700       -0.01656       -0.66321
H         -2.82053       -1.46089        0.35344
H         -0.61323       -2.37246        0.09235
H          3.20066       -1.91796        0.04173
H          2.71385       -4.21204        0.79867
H          0.92775       -3.94364        0.69810
H          1.14546       -3.40807       -1.76301
H          2.93468       -3.70156       -1.65796
H          2.25972        2.35130       -0.54019
H          1.97680        4.53158       -1.64110
H          0.91995        6.75687       -1.57037
H         -0.93498        7.21056        0.01637
H         -1.73028        5.40744        1.52784
H         -0.69580        3.17889        1.45083
