24

C          1.11718       -0.00918        0.10756
C          0.66726       -0.73824        1.36186
C          1.07730       -0.07348        2.65471
O          0.46928       -0.24291        3.70528
O          2.20188        0.67164        2.51426
C          2.66261        1.35813        3.68758
C          2.28027        2.81645        3.61823
C          3.26368        3.81556        3.59911
C          2.90355        5.16422        3.54732
C          1.55900        5.52867        3.51107
C          0.57241        4.54634        3.53538
C          0.93047        3.19910        3.59609
H          0.77575        1.03119        0.11181
H          0.71118       -0.50075       -0.78207
H          2.20861       -0.00627        0.02048
H         -0.42773       -0.78910        1.35581
H          1.06112       -1.75938        1.36539
H          2.29938        0.91114        4.62042
H          3.75354        1.25231        3.69898
H          4.31883        3.55296        3.62666
H          3.67305        5.93176        3.53603
H          1.27947        6.57785        3.46812
H         -0.47741        4.82655        3.51178
H          0.14439        2.44779        3.63109
