28

C          0.94418       -0.47194       -0.06116
C          0.39906       -0.38127        1.35893
C          0.97589        0.78236        2.16938
C          0.39172        2.16442        1.85987
O          0.41986        2.39942        0.46075
C         -0.08456        3.68595        0.11875
C          0.71334        4.79305        0.80047
C          0.09373        6.17319        0.57226
N          2.10169        4.83741        0.17242
O          3.07880        5.00444        0.91396
O          2.16160        4.81478       -1.06665
C          0.81550        4.46595        2.29219
O          1.20088        3.11684        2.54702
H          0.50823        0.28819       -0.71436
H          0.70023       -1.44624       -0.49626
H          2.03304       -0.35876       -0.07745
H         -0.69526       -0.33250        1.33858
H          0.66529       -1.31239        1.87425
H          0.81752        0.58309        3.23775
H          2.06578        0.80623        2.03911
H         -0.64114        2.21598        2.22885
H         -1.13979        3.73059        0.42027
H         -0.07844        3.76789       -0.97357
H          0.71005        6.96530        1.01333
H         -0.01323        6.39610       -0.49589
H         -0.90319        6.23565        1.02217
H          1.52103        5.12118        2.81572
H         -0.15655        4.62297        2.77814
