18

O         -1.88604        0.84886       -1.18534
S         -1.36830        0.22395        0.00784
O         -1.84649        0.49214        1.34150
N         -1.41616       -1.46316       -0.26522
C         -0.07455       -2.05212        0.00242
C          0.93882       -0.94689       -0.00603
C          2.32018       -1.07390       -0.00640
C          3.10180        0.08810       -0.01110
C          2.50524        1.36096       -0.01275
C          1.11722        1.49102       -0.00478
C          0.37246        0.32576        0.00841
H         -1.73558       -1.61142       -1.22377
H         -0.08922       -2.54255        0.98052
H          0.15430       -2.78337       -0.77889
H          2.79631       -2.05048       -0.00478
H          4.18730        0.00720       -0.01328
H          3.13279        2.24976       -0.01798
H          0.64050        2.46593       -0.00481
