19

N          0.77147       -0.32068       -0.34949
C          0.24125        0.78477       -0.90055
O         -0.96750        0.99601       -0.87040
N          1.08047        1.68341       -1.46929
C          2.46045        1.60239       -1.65408
N          3.16733        0.50513       -1.30091
C          4.49931        0.49860       -1.52209
N          5.24781        1.46205       -2.06651
C          4.53103        2.54362       -2.41332
N          5.03866        3.67678       -2.98799
C          4.00408        4.46912       -3.15192
N          2.84728        3.88889       -2.70739
C          3.16344        2.64635       -2.22728
H          0.14687       -1.03823       -0.01413
H          1.73492       -0.55615       -0.56195
H          0.59113        2.49714       -1.80491
H          5.02780       -0.40145       -1.22145
H          4.02972        5.46298       -3.58061
H          1.93187        4.31512       -2.72930
