13

O          1.05633       -0.07168       -0.20527
S          2.46028       -0.22827        0.08064
O          3.04686       -1.41291        0.66015
O          3.26946        0.17472       -1.24928
C          2.89740        1.07421        1.15313
C          2.73169        2.44230        1.12858
N          3.26595        3.02986        2.24813
C          3.75234        2.03836        2.95787
N          3.55690        0.84016        2.33735
H          2.62773        0.21950       -1.98918
H          2.25164        3.03458        0.36008
H          4.24982        2.12642        3.91524
H          3.84096       -0.07228        2.67276
