23

C          0.78391       -0.29447       -0.25215
C          0.41904       -0.75036        1.15301
C          1.11779        0.04545        2.25461
O          0.61000        1.38627        2.34314
C          1.30245        2.33195        1.66723
O          2.28924        2.17682        0.96770
C          0.62212        3.61761        1.83211
C          0.38032        4.17279        3.08817
C         -0.24458        5.41529        3.16322
C         -0.61059        6.04263        1.98008
N         -0.38760        5.52367        0.75103
C          0.23720        4.32208        0.70269
H          0.40173        0.70951       -0.45834
H          0.34769       -0.97135       -0.99372
H          1.86913       -0.29246       -0.39619
H         -0.66775       -0.67346        1.27233
H          0.69050       -1.80718        1.25663
H          0.90063       -0.42631        3.21941
H          2.20757        0.03121        2.13637
H          0.68755        3.65630        3.99280
H         -0.43839        5.88795        4.12004
H         -1.10424        7.01083        1.98944
H          0.41351        3.93124       -0.29596
