36

C          2.30567       -0.15007       -0.16837
C          0.83606        0.11136       -0.01269
C         -0.06221       -0.96161        0.07524
C         -1.43747       -0.73472        0.22365
C         -1.95248        0.56804        0.28102
N         -3.33089        0.79245        0.44441
N         -3.95982        0.42275       -0.57195
C         -5.34493        0.65723       -0.39567
C         -6.10070       -0.14442        0.48287
O         -5.48225       -1.15398        1.17742
C         -7.46588        0.06226        0.65544
C         -8.10358        1.06918       -0.06638
C         -7.39039        1.87629       -0.96541
C         -8.05135        2.87823       -1.69538
C         -7.35680        3.68811       -2.59299
C         -5.99078        3.50896       -2.77056
C         -5.31914        2.51672       -2.05283
C         -5.99676        1.67787       -1.13937
C         -1.03914        1.62056        0.20786
N         -1.52235        2.97963        0.28261
O         -2.03088        3.34674        1.35152
O         -1.33325        3.69583       -0.70948
C          0.34032        1.41696        0.05261
H          2.67958       -0.72118        0.68748
H          2.49416       -0.71266       -1.08823
H          2.87541        0.78354       -0.22302
H          0.30319       -1.98653        0.02868
H         -2.11874       -1.58127        0.29204
H         -6.09670       -1.49945        1.84426
H         -8.04855       -0.55199        1.33460
H         -9.17265        1.21782        0.07446
H         -9.12046        3.03735       -1.57005
H         -7.88251        4.45943       -3.14978
H         -5.44238        4.14117       -3.46433
H         -4.24778        2.40385       -2.21005
H          1.01478        2.26846       -0.01133
