36

C          1.23715       -0.64442       -0.56584
C          1.70324       -0.66082        0.87866
C          2.42296        0.61700        1.30769
O          1.53782        1.74194        1.43886
C          1.40922        2.58543        0.38439
O          1.87119        2.39639       -0.73304
C          0.62000        3.80930        0.77769
C         -0.87120        3.66766        0.51303
C         -1.69284        3.83105        1.78215
O         -2.08882        4.95968        2.08868
N         -1.96662        2.72570        2.57540
C         -1.44450        1.37275        2.37153
C         -0.47463        0.97279        3.47505
C         -2.76722        2.93158        3.78682
C         -1.98015        3.59817        4.90861
H          0.44621        0.09503       -0.71985
H          0.83088       -1.62373       -0.83849
H          2.06778       -0.42196       -1.24204
H          0.83012       -0.84329        1.51004
H          2.38313       -1.50897        1.01906
H          2.83586        0.45365        2.31043
H          3.26974        0.85032        0.65366
H          0.84623        4.06586        1.81902
H          1.02268        4.63527        0.17654
H         -1.18523        4.48736       -0.14929
H         -1.14419        2.75520       -0.02284
H         -2.29650        0.68328        2.35577
H         -0.96278        1.28032        1.39925
H         -0.98932        0.85094        4.43197
H          0.00479        0.01962        3.25141
H          0.30169        1.73219        3.61268
H         -3.64018        3.54535        3.53740
H         -3.14932        1.96018        4.12260
H         -1.91701        4.67887        4.75062
H         -2.47390        3.42789        5.87003
H         -0.95652        3.22036        4.98085
