30

C          0.97225        0.07928       -0.24088
C          0.65866       -1.40361       -0.11123
C          1.10179       -2.00539        1.22544
C          0.43937       -1.40393        2.47058
C         -1.08911       -1.50941        2.51551
C         -1.64330       -2.93837        2.52402
C         -1.24947       -3.78387        3.74056
C         -1.69796       -3.22879        5.09863
C         -3.20637       -3.06136        5.25623
O         -3.87239       -4.31167        5.15621
H          0.40657        0.67512        0.48127
H          0.70700        0.43388       -1.24208
H          2.03926        0.26915       -0.08688
H         -0.41256       -1.56737       -0.27005
H          1.17440       -1.93821       -0.91817
H          0.92183       -3.08640        1.20052
H          2.18827       -1.88465        1.32197
H          0.86611       -1.88513        3.35834
H          0.71663       -0.34621        2.55118
H         -1.44937       -0.97255        3.40066
H         -1.51618       -0.97530        1.65886
H         -2.73632       -2.88785        2.45688
H         -1.32027       -3.46186        1.61671
H         -1.66165       -4.79179        3.60965
H         -0.16091       -3.91255        3.75964
H         -1.34439       -3.92449        5.87007
H         -1.20591       -2.26937        5.29162
H         -3.42718       -2.65104        6.24687
H         -3.62693       -2.37346        4.51687
H         -3.79560       -4.61605        4.23600
