15

O          1.00830       -0.25742        0.01143
C          2.21652       -0.10525        0.03607
O          2.96421        0.11188       -1.06364
C          2.99771       -0.19543        1.28546
C          2.59444       -1.09990        2.27043
C          3.30402       -1.18589        3.46337
C          4.40581       -0.35592        3.65774
N          4.80267        0.55804        2.69512
O          5.80919        1.30342        2.88270
C          4.08884        0.63801        1.51560
H          3.93178        0.04852       -0.95930
H          1.72318       -1.73457        2.10856
H          3.00274       -1.88664        4.23783
H          5.02360       -0.34152        4.54333
H          4.45623        1.40435        0.85093
