49

C          0.26322       -0.31760       -0.47244
N          0.41199       -0.67357        0.92716
C          0.69798        0.43731        1.82652
C          0.78892       -1.97057        1.21614
O          1.20577       -2.74393        0.35106
N          0.77385       -2.39680        2.51130
C         -0.12406       -2.10428        3.55553
C          0.25051       -2.47224        4.84984
C         -0.57034       -2.16396        5.93783
C         -1.80478       -1.52869        5.74574
C         -2.66635       -1.14695        6.92895
C         -3.63131       -2.19438        7.44286
C         -4.91752       -1.80610        7.84693
C         -5.79781       -2.72179        8.43675
C         -5.41238       -4.04747        8.63335
N         -6.21635       -5.01222        9.27415
C         -7.50724       -4.93645        9.70561
O         -7.80775       -5.51516       10.75173
N         -8.43977       -4.27232        8.93487
C         -8.42381       -4.35309        7.48005
C         -9.74143       -4.03231        9.53069
C         -4.12775       -4.43832        8.24761
C         -3.24840       -3.52435        7.65596
C         -2.20677       -1.22526        4.43882
C         -1.36803       -1.50325        3.35312
H         -0.44637        0.50983       -0.56367
H         -0.10900       -1.16880       -1.05008
H          1.23749       -0.01703       -0.87084
H         -0.20637        1.04148        1.93720
H          1.05329        0.11218        2.80508
H          1.49071        1.05183        1.38711
H          1.36696       -3.20464        2.65095
H          1.20472       -2.95911        5.03390
H         -0.23385       -2.41401        6.94188
H         -2.01730       -0.84475        7.76175
H         -3.22267       -0.23903        6.65776
H         -5.24057       -0.77289        7.73451
H         -6.76306       -2.35963        8.77712
H         -5.71240       -5.75579        9.74080
H         -9.20322       -5.05288        7.16082
H         -8.63765       -3.36229        7.07014
H         -7.47648       -4.72221        7.08424
H        -10.36359       -4.92400        9.40582
H         -9.64021       -3.81611       10.59872
H        -10.21335       -3.17637        9.03984
H         -3.79111       -5.46082        8.40028
H         -2.25569       -3.87012        7.38150
H         -3.17032       -0.75466        4.25472
H         -1.71484       -1.26230        2.35210
