43

C          1.91595        0.85566        1.53845
C          1.45085       -0.44700        2.16944
O          2.47297       -1.41007        2.14355
P          2.76013       -2.40588        0.88848
O          2.20857       -3.77935        1.19927
C          2.11369       -1.72856       -0.68550
O          2.68919       -0.76595       -1.18912
C          0.91968       -2.28588       -1.40608
C         -0.27904       -1.53696       -1.51825
C         -0.48205       -0.15294       -0.97520
C         -1.35633       -2.05231       -2.26544
C         -1.27047       -3.27501       -2.92392
C         -2.43078       -3.74951       -3.74869
C         -0.08871       -4.00787       -2.81294
C          1.01364       -3.53113       -2.06530
C          2.26384       -4.36643       -2.11742
C          4.55961       -2.31317        0.87528
C          5.34276       -3.47526        0.94786
C          6.71883       -3.39845        1.20225
C          7.33134       -2.16177        1.39996
C          6.57588       -0.99765        1.31311
C          5.20727       -1.07445        1.04015
H          1.25983        1.68308        1.81989
H          1.91912        0.80431        0.44878
H          2.93982        1.09949        1.83491
H          1.22845       -0.25099        3.22270
H          0.54044       -0.85540        1.73082
H         -0.06681        0.59217       -1.65805
H         -1.54885        0.06189       -0.83448
H         -0.04040       -0.03834        0.00331
H         -2.27381       -1.47058       -2.36004
H         -3.29049       -3.96375       -3.10562
H         -2.71547       -2.97785       -4.47340
H         -2.18596       -4.65556       -4.31093
H         -0.00431       -4.95700       -3.34211
H          2.03281       -5.40285       -1.84772
H          2.67116       -4.34964       -3.13434
H          3.04542       -4.01825       -1.44203
H          4.87178       -4.45327        0.87154
H          7.30901       -4.30790        1.28810
H          8.39056       -2.10560        1.64019
H          7.04148       -0.03112        1.49217
H          4.63091       -0.15421        1.02086
