42

C          0.46735       -0.16222       -0.08048
C          0.52605       -0.19655        1.43806
O          1.14091        0.99455        1.94781
C          2.48063        0.81702        2.15097
C          2.93886        0.42655        3.40751
C          4.31014        0.28053        3.62258
C          5.21432        0.55060        2.58541
C          6.66440        0.44016        2.86965
O          7.13288       -0.32324        3.69695
O          7.31699        1.39933        2.16998
C          8.67623        1.65314        2.55235
C          8.87624        3.13610        2.92982
N          8.30849        3.52349        4.23082
C          8.98689        4.66127        4.85634
C          8.75554        6.02520        4.22203
C          6.84642        3.56722        4.33188
C          6.06297        4.23910        3.20527
C          4.74416        0.96549        1.33327
C          3.37397        1.11025        1.12219
H          0.11455        0.81120       -0.43622
H         -0.19433       -0.94496       -0.46134
H          1.45974       -0.32326       -0.51310
H         -0.49632       -0.21134        1.83123
H          1.01901       -1.11038        1.79482
H          2.23607        0.24682        4.21614
H          4.67568       -0.01649        4.60382
H          9.02594        1.00449        3.36330
H          9.29170        1.43092        1.67300
H          9.96380        3.28195        2.96730
H          8.50767        3.78621        2.12882
H          8.69411        4.71150        5.91303
H         10.06612        4.46337        4.87913
H          7.73238        6.37330        4.38775
H          9.42221        6.76282        4.68112
H          8.95833        6.01593        3.14729
H          6.48737        2.53999        4.43292
H          6.55339        4.03512        5.28077
H          6.28391        3.81296        2.22353
H          4.98928        4.10221        3.37538
H          6.25045        5.31366        3.15776
H          5.43600        1.18866        0.52546
H          3.00613        1.45690        0.16108
