18

O         -2.27119       -1.33618       -0.02459
C         -1.56519       -0.34348       -0.01054
C         -2.03795        1.08889        0.01327
C         -0.75554        1.93795       -0.00004
C          0.35496        0.93703        0.00422
C          1.71855        1.18276        0.01212
C          2.59392        0.09023        0.00909
C          2.10423       -1.22762       -0.00301
C          0.73090       -1.47061       -0.01153
C         -0.10973       -0.37265       -0.00736
H         -2.65347        1.29361       -0.86761
H         -2.61844        1.27049        0.92281
H         -0.71387        2.56118       -0.89938
H         -0.70761        2.58221        0.88384
H          2.10694        2.19693        0.02020
H          3.66858        0.26148        0.01570
H          2.80159       -2.06230       -0.00556
H          0.33180       -2.47958       -0.02043
