32

C          0.54157       -0.11081       -0.01732
C          0.67131       -0.06191       -1.53254
N          1.14975       -1.30323       -2.14112
C          0.19596       -2.07114       -2.94503
C          0.06000       -1.55472       -4.36831
C          2.46904       -1.67223       -1.89940
O          3.10743       -1.27271       -0.93751
S          3.22651       -2.72303       -3.08263
C          4.96049       -2.19850       -2.87952
C          5.34255       -1.01399       -3.74183
C          5.59947       -1.23507       -5.11059
C          5.97470       -0.18833       -5.95716
C          6.08334        1.10520       -5.45940
C          5.83303        1.34679       -4.11155
C          5.48003        0.29715       -3.25389
Cl         5.29156        0.70985       -1.58982
H          0.01598       -1.01114        0.31245
H         -0.00660        0.76715        0.33927
H          1.52097       -0.09134        0.47052
H         -0.29937        0.19659       -1.97058
H          1.37147        0.73550       -1.81006
H          0.48482       -3.12709       -2.95811
H         -0.77678       -2.02846       -2.43984
H          0.99604       -1.65908       -4.92428
H         -0.71273       -2.11986       -4.89975
H         -0.22090       -0.49720       -4.38388
H          5.22137       -2.05323       -1.82780
H          5.57646       -3.05100       -3.19361
H          5.52017       -2.23884       -5.52576
H          6.18485       -0.38515       -7.00564
H          6.37212        1.92363       -6.11352
H          5.92877        2.35890       -3.72466
