40

O         -0.02588       -2.46053       -0.16663
C         -0.03194       -1.23411       -0.15114
C          1.19869       -0.40765       -0.04661
C          2.43135       -0.95811        0.33071
O          2.54762       -2.28829        0.61100
C          3.56284       -0.15203        0.43674
C          3.46305        1.21677        0.18998
C          2.23975        1.79964       -0.17000
N          2.25172        3.19263       -0.44539
C          1.35670        4.14837        0.11489
C          1.08879        5.32354       -0.60374
C          0.21253        6.28647       -0.10188
C         -0.37781        6.10323        1.14465
C         -0.06957        4.97210        1.89896
C          0.80899        4.00774        1.39518
C          1.11613        0.96319       -0.33546
C         -0.15606        1.47106       -0.89611
O         -0.17548        2.35763       -1.73966
C         -1.40781        0.79484       -0.53338
C         -2.65853        1.41678       -0.57738
N         -2.78253        2.83305       -0.83663
O         -2.58645        3.58224        0.12748
O         -3.20304        3.16435       -1.95191
C         -3.84011        0.71999       -0.28878
C         -3.76676       -0.63417        0.02698
C         -2.52637       -1.26929        0.06027
O         -2.53909       -2.60324        0.36437
C         -1.34426       -0.55815       -0.20471
H          3.48177       -2.53731        0.70359
H          4.52603       -0.56623        0.72313
H          4.34808        1.84411        0.28821
H          2.20015        3.30426       -1.46244
H          1.53444        5.48247       -1.58211
H         -0.01919        7.16874       -0.69213
H         -1.08165        6.83854        1.52498
H         -0.52803        4.83500        2.87437
H          1.04293        3.14265        2.00712
H         -4.80568        1.22228       -0.30594
H         -4.67091       -1.19808        0.24715
H         -1.62715       -2.95790        0.23974
