16

N          0.92489       -0.09757       -0.32376
C          0.26014        1.00691       -0.75207
O         -0.87416        1.25736       -0.35622
C          0.97270        1.94774       -1.67317
C          2.06883        1.61818       -2.36428
C          2.66990        2.63024       -3.25253
O          3.67999        2.36965       -3.89545
N          2.04428        3.84113       -3.30684
C          0.90960        4.16934       -2.62224
O          0.37899        5.26881       -2.72909
N          0.41039        3.19221       -1.81494
H          0.44547       -0.68212        0.35018
H          1.90345       -0.28116       -0.48557
H          2.55288        0.65290       -2.34182
H          2.43387        4.54543       -3.91417
H         -0.44504        3.39462       -1.30233
