40

O          1.35177        1.03799        0.86995
C          2.42060        0.54753        0.52903
O          2.92705        0.71827       -0.71667
C          4.31453        0.59987       -1.13717
C          5.24250        1.49605       -0.31990
O          6.26570        1.17578        0.26091
O          4.81277        2.77497       -0.26681
C          4.80416       -0.84234       -1.33201
O          4.28084       -1.42212       -2.55715
C          3.04359       -1.95234       -2.48823
O          2.29442       -1.95939       -1.52556
C          2.69924       -2.52771       -3.79389
C          1.57579       -2.04929       -4.47287
C          1.22326       -2.61589       -5.69732
C          1.97868       -3.66588       -6.22472
C          3.09283       -4.14938       -5.53522
C          3.46052       -3.57789       -4.31762
C          6.30352       -0.93205       -1.54043
O          7.04365       -1.78207       -1.06947
O          6.79039       -0.01815       -2.40778
C          3.13916       -0.32413        1.47291
C          4.09741        0.20139        2.34095
C          4.77443       -0.64966        3.21574
C          4.46166       -2.00963        3.25243
C          3.45545       -2.51984        2.43255
C          2.78214       -1.67419        1.55156
H          4.31600        1.06009       -2.13577
H          5.47761        3.25795        0.26734
H          4.56193       -1.49097       -0.48857
H          0.98008       -1.24241       -4.05217
H          0.35488       -2.24618       -6.23738
H          1.69318       -4.11412       -7.17374
H          3.66806       -4.97650       -5.94416
H          4.31974       -3.96266       -3.77441
H          7.74823       -0.23000       -2.45376
H          4.32311        1.26382        2.34493
H          5.54372       -0.25306        3.87406
H          4.99163       -2.67043        3.93461
H          3.19304       -3.57397        2.48070
H          1.98548       -2.07021        0.92499
