24

C          0.79185        0.03617        0.07998
C          0.41993       -1.41169        0.21356
C         -0.90197       -1.77101        0.55534
C         -1.28791       -3.11380        0.65952
C         -0.34260       -4.09507        0.41295
C          0.95221       -3.73065        0.06931
C          1.36216       -2.41387       -0.04421
C          1.73312       -4.94092       -0.14136
O          2.90530       -4.94487       -0.47582
C          0.86456       -6.15513        0.12481
C          0.84665       -7.08422       -1.07820
C         -0.53164       -5.57865        0.45313
H          0.37348        0.61734        0.90826
H          0.41196        0.43425       -0.86599
H          1.87843        0.17046        0.10214
H         -1.64152       -0.99355        0.74156
H         -2.30933       -3.37107        0.92407
H          2.38527       -2.18206       -0.32473
H          1.26455       -6.67765        1.00180
H          1.85661       -7.43755       -1.31230
H          0.21662       -7.95811       -0.88450
H          0.46394       -6.57562       -1.97012
H         -1.28852       -5.88876       -0.27528
H         -0.85037       -5.89664        1.45168
