49

O          0.99031       -1.46142        0.07772
C          1.97787       -0.75844       -0.11922
C          2.58457        0.12088        0.95830
C          3.68578       -0.57533        1.76934
C          5.02331       -0.88495        1.06843
N          6.00758        0.17200        0.80470
C          7.12097        0.16395        1.75247
C          8.26245        1.06878        1.27951
C          7.80426        2.51115        0.98717
O          7.44832        3.15736        2.21942
C          8.95882        3.34513        0.41459
C          8.88522        4.01229       -0.82162
C          9.96500        4.75154       -1.31573
C         11.14230        4.84646       -0.58216
C         11.23613        4.21352        0.65247
C         10.15473        3.47880        1.14709
C          6.56441        2.46661        0.07796
C          5.48293        1.50711        0.56714
C          2.64785       -0.82305       -1.43406
C          3.23746       -2.03667       -1.80970
C          3.97020       -2.11054       -2.99250
C          4.06024       -0.98937       -3.81044
F          4.76504       -1.06069       -4.94683
C          3.42972        0.20553       -3.46849
C          2.72269        0.29728       -2.26688
H          2.88553        1.08037        0.53997
H          1.76358        0.36759        1.64550
H          3.88691        0.00507        2.67762
H          3.27835       -1.53662        2.11318
H          5.50397       -1.68391        1.65056
H          4.82676       -1.36360        0.11023
H          7.53314       -0.84950        1.84018
H          6.78238        0.45716        2.75344
H          8.70871        0.63354        0.37427
H          9.03623        1.05162        2.05644
H          6.74695        2.64476        2.64874
H          7.98709        3.98092       -1.43142
H          9.88047        5.25577       -2.27499
H         11.98002        5.42070       -0.96740
H         12.14784        4.29544        1.23780
H         10.24682        3.01615        2.12741
H          6.11620        3.46551       -0.00363
H          6.84886        2.14713       -0.93361
H          4.73866        1.46950       -0.23260
H          5.00200        1.91191        1.46534
H          3.16469       -2.90498       -1.15845
H          4.47675       -3.02805       -3.27468
H          3.50072        1.05522       -4.14094
H          2.23214        1.22888       -1.99882
