53

O         -0.55859       -0.10390       -0.30733
C         -0.68864       -1.31830       -1.04096
C          0.06104       -1.26796       -2.38552
N          1.52966       -1.33206       -2.45593
C          2.27472       -0.80888       -1.30967
C          2.49655       -1.80110       -0.14065
N          2.89662       -3.15192       -0.52257
C          4.30005       -3.49346       -0.33909
C          5.39325       -2.67098       -1.02915
C          5.85145       -1.32512       -0.43661
N          5.97115       -1.09051        1.03435
C          5.72128        0.26844        1.44718
C          5.66717        1.34755        0.53152
C          5.40369        2.66650        0.92682
C          5.23531        2.96808        2.26719
C          5.31211        1.94347        3.20161
C          5.53225        0.60792        2.80418
S          5.46850       -0.59222        4.11021
C          6.13214       -2.03276        3.31363
C          6.38169       -3.12419        4.16876
C          6.90220       -4.31155        3.67352
C          7.25237       -4.37322        2.33528
Cl         7.91133       -5.82849        1.69482
C          7.04638       -3.27554        1.49227
C          6.38452       -2.11310        1.92491
C          2.24499       -3.65373       -1.73336
C          2.07442       -2.63049       -2.87063
H          0.04034       -0.27030        0.43900
H         -0.39562       -2.17226       -0.42482
H         -1.75852       -1.43147       -1.24583
H         -0.36711       -2.04957       -3.02593
H         -0.21240       -0.31967       -2.86529
H          3.25267       -0.51472       -1.70204
H          1.84284        0.12640       -0.94059
H          1.56448       -1.90516        0.42103
H          3.19327       -1.36927        0.58455
H          4.47857       -3.53885        0.73689
H          4.43896       -4.53469       -0.66380
H          6.27063       -3.31371       -1.16103
H          5.08541       -2.48109       -2.06677
H          6.80814       -1.05218       -0.90181
H          5.11465       -0.62912       -0.83765
H          5.84106        1.20957       -0.53134
H          5.34080        3.45496        0.18066
H          5.04457        3.98949        2.58459
H          5.18490        2.18953        4.25483
H          6.15107       -3.05471        5.23103
H          7.04610       -5.16152        4.33321
H          7.41015       -3.35860        0.47670
H          1.24667       -4.00475       -1.44263
H          2.75814       -4.54153       -2.12480
H          1.47237       -3.06936       -3.67618
H          3.05800       -2.44942       -3.32321
