23

C          0.78330       -0.11668        0.21215
C          0.34430        1.14057       -0.51703
O          0.74953        1.16243       -1.88291
C          2.15327        1.29205       -2.07969
O          2.69793        2.46409       -1.49162
C          2.32345        3.63427       -2.20339
O          2.97671        3.76236       -3.46151
C          4.39951        3.78629       -3.38834
C          4.93895        5.04553       -2.73380
H          0.52811       -1.01120       -0.36439
H          0.30385       -0.17639        1.19373
H          1.86629       -0.12620        0.36832
H         -0.75050        1.17767       -0.52017
H          0.69045        2.04067        0.00196
H          2.66946        0.42416       -1.65856
H          2.35261        1.27437       -3.15744
H          1.24086        3.65014       -2.37473
H          2.54726        4.50367       -1.57802
H          4.77466        2.88766       -2.88726
H          4.76153        3.74770       -4.42150
H          4.72519        5.05682       -1.66071
H          6.02413        5.10648       -2.85876
H          4.47923        5.93860       -3.16828
