28

C          1.01457        0.02613       -0.04344
C          0.41808        1.16518       -0.86340
C          1.01457        1.27770       -2.26235
O         -1.02445        1.12670       -0.88510
C         -1.66380        0.08372       -1.47338
O         -1.13142       -0.87424       -2.01372
O         -3.00440        0.29225       -1.35576
O         -3.66651       -0.84468       -1.99704
C         -5.00711       -0.63616       -1.87942
O         -5.53949        0.32181       -1.33909
O         -5.64645       -1.67913       -2.46771
C         -7.08899       -1.71761       -2.48941
C         -7.68547       -1.83014       -1.09045
C         -7.68548       -0.57857       -3.30936
H          0.84670       -0.94950       -0.50823
H          0.55408       -0.00956        0.94957
H          2.09453        0.15792        0.07771
H          0.66065        2.09689       -0.33787
H          0.84669        0.37525       -2.85689
H          0.55407        2.10907       -2.80657
H          2.09452        1.44956       -2.21225
H         -7.33156       -2.64932       -3.01494
H         -7.51760       -0.92769       -0.49591
H         -8.76543       -2.00200       -1.14056
H         -7.22498       -2.66151       -0.54624
H         -7.22499       -0.54287       -4.30237
H         -8.76543       -0.71035       -3.43052
H         -7.51760        0.39707       -2.84457
