38

C          4.73167       -0.03449       -0.00676
C          4.32283        1.28918        0.01517
C          2.95896        1.59687        0.05213
C          1.95375        0.59422        0.06430
C          2.40220       -0.74734        0.03503
C          3.77585       -1.04583        0.00406
C          1.47450       -1.79183        0.02889
C          0.09918       -1.54624        0.03041
C         -0.79747       -2.61809       -0.00712
C         -2.16929       -2.39209       -0.04947
C         -2.67697       -1.09029       -0.04077
C         -4.05529       -0.88043       -0.12962
C         -4.60139        0.40485       -0.10800
C         -5.99167        0.56763       -0.23941
C         -6.57614        1.82956       -0.19212
C         -5.77642        2.94331        0.00860
C         -4.39067        2.79405        0.12232
C         -3.75391        1.52820        0.04154
C         -2.32821        1.32572        0.08754
C         -1.39538        2.37763        0.15387
C         -0.01357        2.15208        0.14734
C          0.53718        0.85829        0.09357
C         -0.38474       -0.21882        0.05984
C         -1.79624        0.01299        0.04044
H          5.78903       -0.28248       -0.03553
H          5.05958        2.08811        0.00146
H          2.69503        2.65032        0.06215
H          4.11419       -2.07991       -0.01779
H          1.83098       -2.82039        0.00581
H         -0.43622       -3.64398       -0.01968
H         -2.83859       -3.24868       -0.09527
H         -4.71874       -1.73924       -0.22263
H         -6.63514       -0.29738       -0.38888
H         -7.65117        1.93849       -0.30480
H         -6.22321        3.93207        0.07052
H         -3.81141        3.69935        0.28032
H         -1.72084        3.41334        0.18804
H          0.62391        3.03117        0.18194
