42

C          1.90025       -0.40094       -0.95091
C          1.04410       -1.66118       -0.99236
C          1.39426       -2.63953        0.13272
N          0.50861       -2.48744        1.30204
C         -0.63433       -3.41034        1.43738
C         -0.28283       -4.64130        2.27953
C         -0.71865       -4.49593        3.73321
C          0.73766       -1.51775        2.26341
C          1.67835       -1.67289        3.31007
N          2.49557       -2.87211        3.42637
O          2.32664       -3.56015        4.44355
O          3.35612       -3.07241        2.56132
C          1.84610       -0.73247        4.34619
C          1.07542        0.42545        4.34423
S          1.26129        1.62607        5.64130
C         -0.12736        1.30361        6.69886
O          2.47219        1.28989        6.36293
O          1.08601        2.92726        5.03006
C          0.17836        0.66977        3.31035
C          0.01306       -0.30179        2.30587
N         -0.95219        0.03741        1.27288
O         -0.66777        0.99331        0.53856
O         -2.02682       -0.57610        1.27054
H          1.90325        0.06564        0.03703
H          1.53055        0.33320       -1.67367
H          2.93804       -0.63395       -1.21127
H         -0.01905       -1.40000       -0.97485
H          1.22744       -2.14908       -1.95744
H          1.28460       -3.66035       -0.25482
H          2.44793       -2.53492        0.40288
H         -1.51137       -2.90935        1.85845
H         -0.93128       -3.74546        0.43579
H         -0.80439       -5.51395        1.86822
H          0.78811       -4.86478        2.22712
H         -1.81024       -4.52497        3.81235
H         -0.31704       -5.31854        4.33349
H         -0.38149       -3.55591        4.17577
H          2.56705       -0.91773        5.14311
H         -0.06310        0.27841        7.06852
H         -0.08764        2.00465        7.53495
H         -1.04902        1.45403        6.13309
H         -0.38922        1.59986        3.27556
