47

C          0.89941       -0.09119        0.11047
C          0.33551        0.34838       -1.23465
C          0.77248       -0.54717       -2.41026
C          0.28958       -1.99180       -2.23377
C          0.25894       -0.00555       -3.76345
C          0.81122        1.36243       -4.18829
C          2.34138        1.45800       -4.27274
C          3.00839        0.50295       -5.28676
C          2.62088        0.87318       -6.72435
C          4.54870        0.52661       -5.15871
C          5.11501       -0.06355       -3.85907
C          4.73503       -1.52170       -3.56912
C          5.14444       -2.54434       -4.64488
C          6.66275       -2.63954       -4.79707
C          4.57147       -3.92070       -4.29468
H          0.48447       -1.05196        0.42809
H          0.64734        0.64547        0.88038
H          1.98973       -0.17772        0.06985
H         -0.75871        0.37974       -1.17253
H          0.67272        1.37601       -1.40822
H          1.86602       -0.57663       -2.43120
H         -0.79956       -2.03733       -2.13252
H          0.57685       -2.60471       -3.09540
H          0.73665       -2.45702       -1.34999
H          0.48254       -0.73251       -4.55386
H         -0.83606        0.06515       -3.72725
H          0.37152        1.62867       -5.15646
H          0.45489        2.13011       -3.49151
H          2.60286        2.49190       -4.53412
H          2.75094        1.29719       -3.27104
H          2.66303       -0.52060       -5.11354
H          2.90520        1.90440       -6.95947
H          3.11966        0.21373       -7.44305
H          1.54415        0.76944       -6.88759
H          4.99375       -0.00930       -6.00595
H          4.89977        1.56322       -5.24617
H          6.20740        0.02680       -3.88715
H          4.79773        0.55059       -3.00866
H          5.19005       -1.80653       -2.61124
H          3.65353       -1.58494       -3.41091
H          4.71676       -2.25126       -5.61045
H          7.14139       -2.89249       -3.84479
H          6.93250       -3.41238       -5.52488
H          7.08747       -1.69589       -5.15210
H          3.47844       -3.88169       -4.23395
H          4.83508       -4.65849       -5.05999
H          4.95258       -4.27856       -3.33228
