11

C          1.01202       -0.05092        0.03382
C          0.48742       -1.40311       -0.43242
C          0.99264       -2.57125        0.41436
Cl         0.40094       -2.47964        2.09272
Cl         0.46497       -4.11627       -0.30532
H          0.63868        0.20778        1.02895
H          0.68689        0.73475       -0.65590
H          2.10630       -0.04394        0.06185
H         -0.60952       -1.37862       -0.43976
H          0.80581       -1.54622       -1.47287
H          2.08600       -2.58484        0.44820
