29

C          1.09242        0.28368       -0.11738
C          0.70519       -0.93812       -0.93723
C          1.20915       -2.24921       -0.33087
C          0.61075       -2.60024        1.03483
C         -0.90342       -2.85420        1.05283
C         -1.43208       -3.90257        0.07075
C         -1.10198       -5.32749        0.44868
O         -1.94368       -6.20211        0.60913
O          0.23994       -5.50787        0.54334
C          0.68846       -6.80236        0.96702
C          0.48864       -6.97969        2.46207
H          0.60094        0.28449        0.85976
H          0.79418        1.19839       -0.63892
H          2.17522        0.32176        0.04041
H         -0.38182       -0.96567       -1.06788
H          1.13730       -0.83270       -1.93971
H          1.02320       -3.06366       -1.04001
H          2.29995       -2.19251       -0.22557
H          1.13625       -3.47684        1.42785
H          0.83442       -1.80058        1.75052
H         -1.18654       -3.14418        2.07277
H         -1.41748       -1.90639        0.85210
H         -2.52774       -3.83059        0.06532
H         -1.10989       -3.72029       -0.95819
H          0.19561       -7.59229        0.39016
H          1.75866       -6.85062        0.73928
H         -0.57527       -7.02691        2.71441
H          0.96363       -7.90122        2.80966
H          0.90835       -6.13166        3.01319
