32

C          0.96607        0.14042        0.00913
C          0.63486        0.40680        1.46675
O          1.26280        1.61969        1.91746
C          2.55656        1.49049        2.33726
O          3.18545        0.43901        2.32855
C          3.12079        2.82951        2.78745
C          4.61746        2.74148        3.07625
O          2.90708        3.84270        1.80594
C          2.35322        4.93354        2.40975
O          2.19362        5.97800        1.79422
N          2.08934        4.67593        3.72021
C          1.55787        5.60471        4.65781
C          1.81969        5.46679        6.03111
C          1.34541        6.40806        6.95002
Cl         1.74052        6.24351        8.61744
C          0.57592        7.48550        6.53144
C          0.29341        7.62160        5.17821
Cl        -0.68398        8.93451        4.64474
C          0.78814        6.70367        4.24572
C          2.42111        3.37717        3.99576
O          2.20520        2.73985        5.01758
H          0.64536        0.97872       -0.61767
H          0.46971       -0.76979       -0.34028
H          2.04455        0.02659       -0.13884
H         -0.44563        0.54412        1.57813
H          0.91672       -0.44139        2.10151
H          4.83509        1.98154        3.83520
H          5.17587        2.49129        2.16771
H          5.01098        3.69843        3.43890
H          2.43487        4.65277        6.40856
H          0.20330        8.21050        7.24958
H          0.53015        6.85186        3.19936
