24

C          0.59826        0.45150        0.24864
N          0.55875        0.47274       -1.20277
C          0.74602       -0.82179       -1.84609
C          0.93770        1.64664       -1.82256
O          1.51710        2.55396       -1.22361
N          0.71360        1.79769       -3.15980
C         -0.36755        1.37449       -3.95770
C         -1.53920        0.81849       -3.43874
C         -2.58144        0.43812       -4.29043
C         -2.46604        0.62115       -5.66965
Cl        -3.78759        0.12179       -6.66248
C         -1.30674        1.19951       -6.19412
Cl        -1.09036        1.46627       -7.88802
C         -0.26745        1.58314       -5.33783
H         -0.08214       -0.32130        0.61760
H          0.28891        1.41938        0.65508
H          1.62003        0.23758        0.57722
H         -0.12380       -1.44983       -1.63420
H          0.89329       -0.74403       -2.92446
H          1.64225       -1.29264       -1.42862
H          1.29048        2.53462       -3.54822
H         -1.68041        0.69728       -2.36812
H         -3.48584        0.00763       -3.86630
H          0.63081        2.02912       -5.75881
