36

C          1.35833       -0.23245       -0.00854
C          1.17152        0.37335        1.35083
O          1.38846        1.54647        1.61332
O          0.76568       -0.57673        2.22311
C          0.32908       -0.10850        3.50634
N         -0.87677        0.72868        3.56791
C         -1.94987        0.30610        2.98388
C         -3.15104        1.19231        2.99108
C         -4.37096        0.64731        3.42307
C         -5.53965        1.40790        3.36335
C         -5.49569        2.71741        2.88955
C         -4.28174        3.27186        2.48133
C         -3.10622        2.51461        2.52710
Cl        -1.67428        3.25473        1.90944
C         -2.07718       -1.01004        2.28151
C         -2.70377       -1.02830        1.02450
C         -2.80983       -2.22404        0.32118
Cl        -3.56551       -2.23798       -1.22311
C         -2.30014       -3.40289        0.85426
C         -1.66903       -3.38223        2.10034
C         -1.53151       -2.19121        2.82519
N         -0.84623       -2.28034        4.05079
C          0.00935       -1.35492        4.35446
O          0.65041       -1.44934        5.53875
H          0.96309        0.44893       -0.76661
H          0.80258       -1.17235       -0.09110
H          2.41937       -0.42377       -0.17942
H          1.16083        0.42804        3.97777
H         -4.42117       -0.37119        3.80258
H         -6.48608        0.97714        3.68261
H         -6.40710        3.30834        2.83372
H         -4.25975        4.29405        2.10969
H         -3.08891       -0.11345        0.58113
H         -2.37939       -4.33844        0.30675
H         -1.25972       -4.30323        2.51155
H          1.19485       -0.67241        5.73890
