34

C          0.95514        0.23727        0.56642
C          0.57710       -1.23527        0.37801
C          0.99673       -1.98223        1.66080
C         -0.94623       -1.35180        0.21534
N          1.23608       -1.94106       -0.73911
C          1.89040       -1.61383       -1.88228
O          2.33826       -2.55425       -2.54808
C          2.17248       -0.16965       -2.29603
O          1.06834        0.71232       -2.43721
C          0.14586        0.32915       -3.35073
O          0.19344       -0.65835       -4.05912
C         -1.00701        1.26090       -3.31902
C         -2.25040        0.77750       -3.74342
C         -3.36591        1.61453       -3.73394
C         -3.24014        2.93752       -3.31076
C         -2.00168        3.42599       -2.89236
C         -0.88347        2.58965       -2.89273
H          0.58587        0.61460        1.52804
H          0.50011        0.87759       -0.19108
H          2.03879        0.38391        0.55420
H          0.54275       -1.54170        2.55486
H          0.70486       -3.03830        1.62211
H          2.08633       -1.95281        1.78465
H         -1.28567       -0.87905       -0.71232
H         -1.26236       -2.40129        0.18016
H         -1.47313       -0.87579        1.05063
H          1.13186       -2.95032       -0.71322
H          2.85732        0.25925       -1.55708
H          2.73083       -0.18349       -3.24109
H         -2.35150       -0.25328       -4.07826
H         -4.33066        1.23474       -4.06079
H         -4.10950        3.59079       -3.31175
H         -1.90752        4.46039       -2.57049
H          0.07663        2.98586       -2.57163
