45

N          1.11699       -0.11295        0.22032
C          0.57108       -0.01233       -1.12700
C          0.81457        1.19944       -1.98263
C          1.93250        2.18069       -1.78207
N          3.11282        1.52101       -2.37657
C          3.53481        2.18749       -3.52707
N          4.18456        3.36140       -3.31522
C          4.66024        4.08834       -4.36360
C          4.47403        3.65559       -5.67731
C          3.78502        2.46829       -5.91465
C          3.31310        1.73813       -4.83430
F          2.61290        0.62323       -5.09177
C          4.99222        4.44714       -6.81541
O          4.81789        4.02524       -7.95262
C          5.70370        5.71178       -6.51212
C          6.33093        6.61311       -7.49305
O          6.94536        7.63270       -7.22402
O          6.19829        6.22314       -8.76656
C          5.80505        6.05097       -5.21704
N          5.33733        5.32724       -4.12681
C          5.57595        5.81681       -2.80721
C          6.35786        5.07755       -1.90344
C          6.61910        5.57123       -0.62319
C          6.08483        6.79554       -0.23546
F          6.33584        7.26239        0.99431
C          5.29838        7.54146       -1.10130
C          5.05610        7.05166       -2.38018
F          4.29299        7.78026       -3.21009
C          2.90463        0.06637       -2.41295
C          1.41992       -0.11720       -2.36560
H          1.05168       -1.06691        0.57494
H          2.10340        0.14025        0.26496
H         -0.43117       -0.43417       -1.20607
H          0.00450        1.58996       -2.58261
H          2.11369        2.35921       -0.71653
H          1.68480        3.14569       -2.24182
H          3.60505        2.11033       -6.92402
H          6.66640        6.90089       -9.29491
H          6.32416        6.96617       -4.93119
H          6.77244        4.11679       -2.20033
H          7.23266        5.00633        0.07190
H          4.87893        8.48929       -0.78629
H          3.36882       -0.37400       -1.52317
H          3.36705       -0.43393       -3.26928
H          1.02697       -0.62786       -3.23412
