30

C          1.15630       -0.02902       -0.09345
C          0.57563       -1.38607        0.33671
C          1.17058       -1.76804        1.69704
C         -0.95237       -1.46581        0.37491
C         -1.70989       -0.28282        0.51873
C         -3.10447       -0.30168        0.56838
C         -3.78126       -1.50666        0.49060
C         -3.06195       -2.69199        0.36002
C         -1.64978       -2.70174        0.29558
C         -0.95031       -4.05290        0.14971
C         -1.18636       -4.94295        1.37569
C         -1.37397       -4.77780       -1.13333
H          0.98789        0.74725        0.66132
H          0.72134        0.30843       -1.04024
H          2.24027       -0.10727       -0.23541
H          0.93069       -2.09135       -0.42384
H          0.83190       -1.08565        2.48475
H          0.88757       -2.78043        1.99826
H          2.26505       -1.73238        1.66595
H         -1.22632        0.68685        0.59724
H         -3.65641        0.62885        0.67190
H         -4.86660       -1.52974        0.53421
H         -3.62056       -3.62406        0.30949
H          0.13067       -3.91548        0.07379
H         -2.23781       -5.23075        1.48046
H         -0.59764       -5.86367        1.29921
H         -0.88847       -4.43136        2.29737
H         -1.21409       -4.14367       -2.01226
H         -0.78638       -5.69261       -1.26780
H         -2.43018       -5.06713       -1.11609
