34

N          0.87936       -0.34978       -0.79112
C          0.61298        0.99003       -0.77285
O         -0.16406        1.40379        0.08503
N          1.17060        1.73875       -1.81785
C          0.82221        3.11950       -1.93695
C          0.88714        3.96541       -0.81913
C          0.51440        5.30662       -0.91516
C          0.05714        5.81451       -2.12633
C         -0.03374        4.97987       -3.23909
C          0.34120        3.62813       -3.15206
C          0.18755        2.72695       -4.34282
O         -0.67443        1.60326       -4.08336
C          1.54396        2.23852       -4.87847
O          1.28683        1.31696       -5.95540
C          2.53216        1.57936       -3.93472
C          3.74681        1.15475       -4.53285
C          4.74332        0.50546       -3.80942
C          4.55637        0.27087       -2.45909
C          3.37342        0.68526       -1.84574
C          2.33759        1.33422       -2.55916
H          0.31689       -0.88528       -0.14305
H          1.02596       -0.77452       -1.69717
H          1.23725        3.58607        0.13868
H          0.57548        5.94918       -0.04056
H         -0.24025        6.85764       -2.20070
H         -0.41195        5.39042       -4.17344
H         -0.31652        3.26753       -5.15366
H         -1.15690        1.79912       -3.25909
H          2.06035        3.10524       -5.31346
H          0.50444        0.80836       -5.65901
H          3.90524        1.32313       -5.59883
H          5.65814        0.18868       -4.30280
H          5.32879       -0.22317       -1.87584
H          3.28575        0.52346       -0.77231
