64

C          0.98677       -0.05208       -0.36596
C          0.65726       -1.40657        0.24329
C          1.34088       -1.68718        1.58422
S          0.56758       -0.87067        3.01897
C          1.30402        0.73891        2.88492
N          0.44659        1.74269        2.58617
C          0.92753        2.99720        2.39691
N          0.00433        3.98599        1.99918
C         -0.24752        5.16436        2.85662
C          0.73211        5.86025        3.74870
C          0.26377        6.54943        2.49082
C          1.22518        6.78357        1.34434
C          2.53407        7.26375        1.55896
C          3.41704        7.49424        0.49849
C          2.99220        7.26676       -0.80221
F          3.83431        7.49455       -1.81979
C          1.70355        6.81412       -1.04466
F          1.28686        6.61004       -2.30243
C          0.82743        6.57479        0.01250
C          2.31125        3.17773        2.48280
N          3.12834        4.24578        2.24588
N          4.37261        3.86860        2.47332
N          4.35059        2.57414        2.86952
C          5.59338        1.90229        3.18362
C          6.62304        2.04736        2.05738
C          7.99578        2.18296        2.71057
O          8.87553        3.01701        1.96975
C          8.93143        4.42856        2.16595
C          7.67736        5.21025        1.78160
O          6.70030        5.14408        2.81665
C          7.79035        2.32137        4.23365
O          8.49488        3.37096        4.87689
C          6.27113        2.40077        4.47527
O          5.91883        3.72180        4.89015
C          3.07675        2.07786        2.83178
N          2.64270        0.82452        3.04992
H          0.45812        0.75651        0.14184
H          0.67359       -0.02723       -1.41501
H          2.06173        0.15092       -0.33117
H         -0.43004       -1.52400        0.32409
H          0.99579       -2.17268       -0.46589
H          1.25817       -2.76255        1.77957
H          2.41164       -1.46292        1.53804
H         -0.84975        3.45486        1.81819
H         -1.26630        5.12700        3.24278
H          0.36455        6.24577        4.69464
H          1.75467        5.52245        3.81831
H         -0.44934        7.35901        2.63923
H          2.87982        7.44091        2.57596
H          4.42607        7.84704        0.68350
H         -0.17407        6.21679       -0.20766
H          5.37371        0.83276        3.29957
H          6.59839        1.15185        1.42191
H          6.41239        2.86990        1.37226
H          8.45593        1.19194        2.58886
H          9.26573        4.66932        3.17552
H          9.73103        4.76763        1.49681
H          7.92174        6.26772        1.64286
H          7.24234        4.82709        0.85397
H          5.83576        5.32800        2.38521
H          8.14913        1.39152        4.69262
H          7.82341        4.02778        5.15371
H          5.99633        1.74688        5.31107
H          6.05971        4.32600        4.12497
