23

Cl        -2.29319        2.07121        0.61980
C         -1.00234        0.99541        0.25294
C         -1.12586       -0.35770        0.55172
C         -0.07963       -1.22884        0.24134
Cl        -0.28212       -2.90368        0.61611
C          1.09526       -0.75392       -0.36173
O          2.04458       -1.68405       -0.72611
C          3.32922       -1.53446       -0.25657
C          3.64955       -1.08727        1.02600
C          4.99172       -0.95582        1.39595
C          6.00999       -1.28675        0.49441
Cl         7.64443       -1.08137        1.01481
C          5.68321       -1.76774       -0.77778
Cl         6.88243       -2.20813       -1.94094
C          4.34269       -1.90017       -1.14605
C          1.19041        0.60944       -0.68352
Cl         2.53699        1.27943       -1.53533
C          0.14869        1.48399       -0.35938
H         -2.03612       -0.73464        1.01198
H          2.87567       -0.83823        1.74649
H          5.24017       -0.59298        2.39089
H          4.07921       -2.26843       -2.13465
H          0.22570        2.54073       -0.60567
