15

O          1.11428       -0.01026        0.01771
C          2.33132        0.07438        0.01916
C          3.17878       -1.18348        0.01897
N          4.47604       -1.19028        0.02093
C          5.12832        0.05441        0.02314
N          6.46787       -0.01172        0.02514
C          7.10585        1.16660        0.02691
N          6.53146        2.38363        0.02684
C          5.18449        2.39875        0.02486
C          4.42581        1.25273        0.02298
N          3.02651        1.25808        0.02099
H          2.60735       -2.12466        0.01696
H          8.19054        1.13615        0.02850
H          4.73596        3.38670        0.02479
H          2.49415        2.11770        0.02104
