26

C          1.41991       -0.31442        0.27102
C          0.81672        0.26608        1.54133
C          1.07931        1.76555        1.70346
C          0.35590        2.64958        0.68897
O         -1.06019        2.60718        0.92226
C         -1.81383        1.84994        0.08975
O         -1.38574        1.21479       -0.86641
C         -3.28611        1.93115        0.42331
C         -3.63925        2.12898        1.89809
C         -3.43736        3.55472        2.39667
H          1.05451        0.18944       -0.62716
H          1.16243       -1.37466        0.18399
H          2.51108       -0.23096        0.28689
H         -0.25856        0.06044        1.56904
H          1.25278       -0.25887        2.39972
H          0.75078        2.05310        2.71030
H          2.15712        1.95611        1.64674
H          0.66069        3.69014        0.84793
H          0.61790        2.40478       -0.34520
H         -3.73401        2.71591       -0.19498
H         -3.72031        0.97243        0.11121
H         -4.70048        1.88080        2.02375
H         -3.07215        1.43458        2.52874
H         -3.80932        4.28829        1.67499
H         -3.97453        3.70180        3.33909
H         -2.38349        3.76905        2.59431
