15

Br         1.03095       -0.18671        0.07528
C          2.91268       -0.05922       -0.00682
C          3.69455       -1.20734       -0.07260
N          5.04929       -1.23786       -0.13548
C          5.59450       -0.00706       -0.12866
N          6.93801        0.24440       -0.18442
C          7.15880        1.59839       -0.16004
C          5.93194        2.22537       -0.08657
C          4.93194        1.21524       -0.06635
C          3.52890        1.19164       -0.00225
H          3.23124       -2.19141       -0.07721
H          7.63986       -0.47930       -0.23580
H          8.16446        1.99556       -0.19697
H          5.77281        3.29537       -0.05168
H          2.95670        2.11110        0.04798
