23

O          0.99524       -0.23436        0.43588
C          2.21108       -0.18202        0.32105
O          2.96335       -1.30522        0.21781
C          3.02353        1.10900        0.26367
O          2.42657        2.15947       -0.49265
C          2.80464        2.14186       -1.81046
C          2.46623        1.06383       -2.63676
C          2.83572        1.06678       -3.98227
C          3.51827        2.15921       -4.50738
Cl         3.96518        2.16855       -6.16788
C          3.82594        3.25242       -3.69845
C          3.46827        3.26009       -2.33723
C          3.77598        4.48002       -1.50834
O          5.16744        4.78090       -1.55639
H          3.91815       -1.15877        0.08037
H          3.10822        1.46264        1.29802
H          4.04749        0.91393       -0.07949
H          1.88061        0.22856       -2.26200
H          2.56790        0.22540       -4.61635
H          4.33693        4.11382       -4.12614
H          3.21898        5.34164       -1.89099
H          3.50653        4.34959       -0.45680
H          5.64812        3.93695       -1.57116
