24

N         -1.84164       -2.16184       -0.05385
C         -1.44162       -0.80561       -0.12614
C         -2.37202        0.24941       -0.07722
S         -4.13083        0.01857       -0.06075
O         -4.61715        0.48059        1.22175
O         -4.64571        0.54308       -1.30649
O         -4.40944       -1.57294       -0.06130
C         -1.95392        1.58684       -0.07083
C         -0.59936        1.89563       -0.06649
C          0.35953        0.87963       -0.03424
C          1.72218        1.21837        0.01525
C          2.70500        0.23451        0.08395
C          2.33550       -1.10164        0.11153
C          0.98331       -1.45272        0.05533
C         -0.04612       -0.48253       -0.03502
H         -1.18922       -2.79584       -0.50551
H         -2.78691       -2.32910       -0.40771
H         -4.76476       -1.79310        0.82860
H         -2.68459        2.39443       -0.06577
H         -0.29975        2.94207       -0.06336
H          2.03170        2.26187        0.00941
H          3.75439        0.51343        0.12672
H          3.09501       -1.87621        0.18069
H          0.74611       -2.51202        0.09974
