23

O          3.60178       -1.08865        0.49658
C          3.25290        0.07536        0.64407
C          1.90132        0.56622        1.16733
C          1.93404        2.00722        0.75166
C          0.88807        2.88132        0.53000
C          1.17160        4.09294       -0.13352
C          0.04184        4.75431       -0.90327
C         -1.07200        5.41332       -0.10890
Cl        -0.55280        6.95866        0.59286
C          2.52234        4.49008       -0.31487
Cl         2.93962        6.04142       -0.95262
C          3.57143        3.60081       -0.06834
C          3.22984        2.34478        0.37472
N          4.01433        1.19972        0.34331
H          1.08129        0.02523        0.69199
H          1.88339        0.46450        2.25685
H         -0.13399        2.55999        0.71011
H          0.42771        5.45014       -1.65571
H         -0.40814        3.94892       -1.50350
H         -1.90639        5.63235       -0.78476
H         -1.44655        4.77505        0.69547
H          4.59601        3.85835       -0.31008
H          4.92498        1.13279       -0.08802
