21

C         -3.56710       -0.76376        0.01073
C         -2.16884       -0.22112        0.00686
C         -1.93074        1.15535        0.00719
C         -0.62272        1.64642        0.00487
C          0.47404        0.77108        0.00251
C          1.79444        1.24994        0.00137
C          2.87418        0.36539       -0.00021
C          2.64793       -1.00777       -0.00114
C          1.34144       -1.49935       -0.00041
C          0.24383       -0.62288        0.00169
C         -1.07768       -1.10142        0.00356
H         -3.73700       -1.37467       -0.88165
H         -3.73130       -1.37588        0.90338
H         -4.31042        0.04023        0.01377
H         -2.76001        1.85892        0.00959
H         -0.46616        2.72268        0.00539
H          1.99067        2.31964        0.00208
H          3.89070        0.74976       -0.00059
H          3.48743       -1.69792       -0.00225
H          1.18458       -2.57554       -0.00111
H         -1.26208       -2.17414        0.00302
