48

C          0.87418        0.12824       -0.14886
C          0.40423       -0.24744        1.23170
C         -0.09588        0.77485        2.04807
F         -0.13475        2.02325        1.55612
C         -0.51480        0.54915        3.36068
N         -0.93956        1.55193        4.21264
C         -0.27069        1.74500        5.50322
C          0.21494        3.20355        5.65461
N         -0.83479        4.21412        5.40681
C         -1.44402        4.00919        4.06740
C         -0.51871        4.51383        2.95856
C         -1.92783        2.55549        3.80945
C         -0.47791       -0.77507        3.82252
C          0.01157       -1.85417        3.07073
C          0.46769       -1.56427        1.75512
C          1.02565       -2.68238        0.92726
O          1.58994       -2.46342       -0.13781
C          0.89984       -4.06479        1.43650
C          1.28045       -5.24052        0.62638
O          1.59239       -5.26288       -0.54872
O          1.25486       -6.39943        1.31912
C          0.43683       -4.20345        2.68512
N          0.05569       -3.19866        3.56526
C         -0.31210       -3.68779        4.93008
C         -0.37172       -2.94414        6.23056
C         -1.64503       -3.39772        5.56253
H          0.66205        1.17631       -0.38602
H          0.35991       -0.46730       -0.90924
H          1.95857        0.00117       -0.22935
H         -0.97539        1.50450        6.30801
H          0.59512        1.08067        5.61897
H          1.06451        3.38315        4.98548
H          0.59736        3.34689        6.67166
H         -1.56766        4.06965        6.10158
H         -2.33502        4.64946        4.03146
H         -1.01017        4.42387        1.98331
H         -0.27564        5.57141        3.10587
H          0.42148        3.95714        2.91035
H         -2.25089        2.43199        2.76933
H         -2.82195        2.38344        4.42408
H         -0.90792       -0.92765        4.79922
H          1.53589       -7.05714        0.64680
H          0.33369       -5.20235        3.10219
H          0.06388       -4.70187        5.08796
H         -0.06950       -3.47599        7.12886
H         -0.10650       -1.90117        6.28688
H         -2.29543       -2.66663        5.10034
H         -2.18199       -4.23252        6.00013
