45

C          0.86613       -0.57298       -0.50299
C          0.56018       -1.24850        0.79802
O         -0.46765       -1.08027        1.44307
O          1.58433       -2.07607        1.15643
C          1.42699       -2.79463        2.39756
C          1.27943       -1.86258        3.59036
C          1.98825       -0.71644        3.72174
C          3.22666       -0.46870        2.90986
O          3.63644        0.59804        2.49331
O          3.97283       -1.58227        2.76805
N          1.52982        0.36712        4.45362
C          0.82902        1.34029        3.76201
O          1.04996        1.92502        2.72485
C         -0.46264        1.08838        4.59061
N         -1.51295        0.40359        3.78346
C         -2.87157        0.52910        3.84555
O         -3.56005       -0.09997        3.04041
C         -3.50270        1.44433        4.87237
S         -3.37165        0.77564        6.55900
C         -4.44711       -0.63941        6.41500
C         -5.79043       -0.54316        6.76550
C         -6.57190       -1.68350        6.67635
N         -6.10813       -2.88493        6.27195
C         -4.80298       -2.94842        5.93868
C         -3.94194       -1.86761        5.99868
C          0.48512        0.25263        5.48157
S          0.02591       -1.39797        6.00554
C          0.10993       -2.25179        4.44145
H          0.30356        0.36275       -0.56486
H          0.58780       -1.22746       -1.33153
H          1.92977       -0.32433       -0.55824
H          0.54948       -3.44396        2.28275
H          2.28430       -3.46179        2.53121
H          4.75292       -1.26155        2.26825
H         -0.82366        2.00256        5.07129
H         -1.22971       -0.13848        2.95945
H         -3.02388        2.42673        4.82488
H         -4.55636        1.59399        4.61293
H         -6.22655        0.38833        7.10693
H         -7.62514       -1.66247        6.94012
H         -4.45182       -3.92341        5.61427
H         -2.90442       -1.99331        5.72102
H          0.79489        0.83550        6.36184
H          0.19359       -3.31638        4.69057
H         -0.83230       -2.13885        3.89953
