37

C          1.59177        0.38341        0.00243
C          1.00582        0.88888       -1.27378
C          0.38561        0.03472       -2.21255
C         -0.13317        0.51150       -3.43242
C         -0.05285        1.87792       -3.74981
C         -0.48319        2.49666       -4.93821
C         -0.32233        3.89852       -5.17047
C          0.23478        4.69866       -4.12768
C          0.39490        6.07640       -4.25744
C          0.04440        6.69691       -5.45114
C         -0.46488        5.95835       -6.52622
C         -0.75875        6.61803       -7.73160
C         -1.25160        5.92163       -8.83189
C         -1.46942        4.55642       -8.73514
C         -1.18671        3.88771       -7.54026
C         -0.66843        4.55653       -6.40203
C          0.65060        4.05796       -2.95900
C          0.52507        2.69155       -2.81535
C          1.07000        2.23546       -1.63014
C          1.71701        3.36868       -0.91170
C          1.27493        4.62422       -1.72397
H          1.27155       -0.64351        0.20650
H          1.26807        1.00113        0.84634
H          2.68472        0.39784       -0.05165
H          0.31052       -1.03015       -1.99782
H         -0.58905       -0.18767       -4.12859
H         -0.92916        1.86132       -5.69757
H          0.80132        6.68224       -3.45315
H          0.19054        7.77137       -5.54033
H         -0.59220        7.68904       -7.82771
H         -1.46050        6.44542       -9.76054
H         -1.85276        4.00284       -9.58835
H         -1.36841        2.81728       -7.52319
H          1.41411        3.43227        0.13615
H          2.80599        3.25029       -0.96978
H          2.12389        5.27670       -1.94489
H          0.51715        5.18523       -1.16427
