19

C         -2.13783        0.70745       -0.05898
C         -2.13994       -0.69655       -0.05222
C         -0.94067       -1.41008        0.00354
C          0.24566       -0.69736        0.03784
C          0.24776        0.70194        0.03097
C         -0.93640        1.41786       -0.01017
C          1.64391        1.23228        0.12578
C          2.45976       -0.00267       -0.28334
C          1.64017       -1.23094        0.13818
H         -3.08166        1.24574       -0.09635
H         -3.08539       -1.23234       -0.08449
H         -0.94377       -2.49499        0.02057
H         -0.93624        2.50289       -0.00362
H          1.86498        1.52922        1.15612
H          1.82122        2.07071       -0.55348
H          2.57885       -0.00836       -1.37595
H          3.46493       -0.00201        0.14960
H          1.81503       -2.07679       -0.53244
H          1.86023       -1.51802        1.17154
