47

C          1.55172       -0.45675        1.18248
C          0.51868        0.06630        2.13482
O         -0.66550        0.12425        1.85659
O          1.09529        0.51641        3.29145
C          0.29500        1.37198        4.16231
C         -0.22006        2.57442        3.30480
C         -0.19023        3.93889        3.99462
C         -0.51078        3.81370        5.47174
C          0.57058        2.98553        6.21211
C          1.69420        3.94755        6.70160
C         -0.05542        2.33759        7.48509
C         -1.22585        1.36539        7.28697
C         -0.81271        0.24563        6.36122
C         -0.84929        0.56270        4.81577
C         -1.02110       -0.99962        4.67447
C         -1.77425       -0.96032        6.05102
C         -3.27854       -0.69141        5.92209
C         -1.53755       -2.15808        6.96983
C          1.23401        1.93504        5.25377
H          1.45053        0.08375        0.23586
H          1.39833       -1.52590        1.02483
H          2.56245       -0.28545        1.56033
H          0.38128        2.67478        2.39117
H         -1.24326        2.38341        2.95927
H         -0.90573        4.60884        3.50482
H          0.79868        4.39613        3.86445
H         -1.50186        3.35807        5.55239
H         -0.61006        4.80911        5.92118
H          2.69294        3.51994        6.56034
H          1.67494        4.90384        6.16712
H          1.60106        4.17864        7.76886
H         -0.40960        3.13440        8.15371
H          0.73891        1.81330        8.03430
H         -2.12085        1.87972        6.92426
H         -1.49242        0.95041        8.26669
H          0.16198       -0.14424        6.69954
H         -1.78615        1.06670        4.53953
H         -1.60899       -1.35325        3.82434
H         -0.07557       -1.55870        4.69895
H         -3.77734       -1.54255        5.44460
H         -3.73558       -0.53987        6.90527
H         -3.50801        0.19192        5.31974
H         -0.47233       -2.37716        7.09431
H         -1.95298       -1.96514        7.96620
H         -2.02048       -3.05750        6.57376
H          2.08200        2.40171        4.72943
H          1.70554        1.12782        5.82878
