49

C          0.10409        0.88695       -0.28328
C         -0.67118        0.06030       -1.30186
C          0.24092       -0.61848       -2.32371
O          0.56306       -1.96905       -2.01518
P          1.13973       -2.31128       -0.42043
S         -0.27948       -3.72712       -0.42073
O          2.52037       -2.87876       -1.12856
C          3.54548       -1.93918       -1.40713
C          4.29422       -2.35061       -2.66878
C          3.39486       -2.38976       -3.89638
S          1.84640       -2.73066        1.53383
C          1.51600       -4.16888        2.52226
C          0.19787       -4.90675        2.48867
O          0.23957       -6.08024        2.08828
N         -0.99218       -4.38159        3.00619
C         -2.07159       -5.37013        3.14669
C         -2.02173       -5.96637        4.55920
C         -2.07164       -4.87310        5.63436
C         -1.07358       -3.73633        5.36533
C         -1.20955       -3.24276        3.91871
C         -0.47281       -1.93715        3.67905
H          0.80938        0.28151        0.29011
H         -0.58692        1.35668        0.42398
H          0.66776        1.68366       -0.77997
H         -1.29858       -0.67019       -0.78196
H         -1.34190        0.74718       -1.83171
H         -0.28269       -0.65225       -3.28525
H          1.16504       -0.05544       -2.48430
H          3.12759       -0.93391       -1.52110
H          4.23547       -1.92025       -0.55771
H          5.11783       -1.65018       -2.84600
H          4.72898       -3.34675       -2.52747
H          2.92705       -1.41604       -4.07240
H          3.97948       -2.65030       -4.78435
H          2.60349       -3.13782       -3.78623
H          2.29055       -4.89954        2.25746
H          1.71883       -3.92180        3.57031
H         -3.03084       -4.86766        2.97314
H         -2.00048       -6.16711        2.39930
H         -1.09437       -6.53947        4.68294
H         -2.85380       -6.66462        4.70137
H         -1.87941       -5.30954        6.62075
H         -3.08574       -4.45462        5.66496
H         -0.05321       -4.09474        5.54646
H         -1.26358       -2.91863        6.07044
H         -2.26456       -2.96612        3.76944
H         -0.56133       -1.62230        2.63539
H         -0.92167       -1.14043        4.28480
H          0.57576       -1.98805        3.97560
