43

C          1.15266        0.02942       -0.17478
O          0.81932       -0.69681       -1.35418
C          1.06114       -0.01371       -2.51782
C          2.34020        0.47196       -2.77064
C          2.62661        1.02971       -4.00649
C          1.66823        1.05270       -5.03722
C          0.31709        0.70973       -4.76041
C          0.04839        0.11705       -3.49480
C         -1.34269       -0.32955       -3.19669
O         -1.66443       -0.81615       -2.11532
C         -2.39401       -0.15710       -4.21767
C         -3.69883       -0.59647       -3.93327
C         -4.72161       -0.40018       -4.85455
C         -4.43674        0.21550       -6.06627
C         -3.13152        0.63551       -6.35186
C         -2.08343        0.48450       -5.42257
N         -0.76405        0.93986       -5.66255
C         -0.64518        2.05117       -6.62091
C          2.20420        1.34519       -6.37576
C          3.33147        2.06136       -6.46344
C          4.05429        2.50515       -5.21547
C          5.56022        2.59712       -5.48510
C          3.54673        3.87506       -4.73560
O          3.89934        1.53056       -4.15701
H          0.65890       -0.46085        0.66983
H          0.79788        1.06483       -0.22112
H          2.23090       -0.00190        0.01043
H          3.13204        0.38728       -2.03376
H         -3.91675       -1.08281       -2.98426
H         -5.73192       -0.72920       -4.62651
H         -5.22837        0.37001       -6.79554
H         -2.95870        1.08366       -7.32643
H          0.10454        2.79264       -6.32598
H         -0.40541        1.66254       -7.61716
H         -1.56417        2.64267       -6.70571
H          1.70466        0.95248       -7.25215
H          3.74783        2.30977       -7.43447
H          5.79078        3.34287       -6.25422
H          6.10178        2.86933       -4.57128
H          5.96407        1.63074       -5.80826
H          2.47821        3.85079       -4.49069
H          4.06147        4.17952       -3.81714
H          3.69767        4.65101       -5.49392
