35

N          1.11050        0.40653        0.22025
C          0.36003        0.59925        1.34453
O         -0.86095        0.49556        1.32407
C          1.13838        0.95567        2.57916
S          1.94400       -0.47845        3.20447
O          2.94776       -0.65252        2.17226
C          2.94253       -0.01266        4.58663
C          2.00400        0.51015        5.65925
C          1.99587        1.88183        5.96562
C          1.12895        2.39160        6.93357
C          0.26147        1.53918        7.61170
C          0.26207        0.17611        7.32621
C          1.12721       -0.33677        6.35807
C          3.85712       -1.13176        5.06589
C          3.62326       -2.50073        4.85719
C          4.50105       -3.46572        5.36116
C          5.62196       -3.08286        6.09197
C          5.86780       -1.73359        6.32180
C          4.99353       -0.76930        5.81608
H          0.61946        0.04301       -0.58610
H          2.07210        0.09163        0.34563
H          1.88114        1.72796        2.36260
H          0.44736        1.32588        3.34015
H          1.17269       -1.57206        3.33660
H          3.57632        0.80358        4.21336
H          2.66638        2.56826        5.45192
H          1.13166        3.45480        7.16083
H         -0.41203        1.93616        8.36697
H         -0.40962       -0.49039        7.86173
H          1.11327       -1.40709        6.16312
H          2.76304       -2.85191        4.29481
H          4.30786       -4.52016        5.17960
H          6.30182       -3.83551        6.48200
H          6.73881       -1.42928        6.89625
H          5.20342        0.28002        6.01753
