36

C          1.16120        0.70954       -0.09096
C          0.56372        0.69185       -1.49392
C          1.15951       -0.37450       -2.41522
C          0.62743       -1.76279       -2.15661
O          0.16604       -2.49572       -3.01943
O          0.78867       -2.08948       -0.85663
C          0.25803       -3.34721       -0.46354
O         -1.17147       -3.37140       -0.35917
C         -1.66067       -2.67687        0.68987
O         -1.02890       -2.01203        1.49287
C         -3.12333       -2.78487        0.72898
C         -3.84158       -1.57618        0.73244
C         -5.23928       -1.57611        0.79852
C         -5.93374       -2.78201        0.86636
C         -5.23176       -3.98544        0.86918
C         -3.83112       -3.98134        0.81150
O         -3.27586       -5.32194        0.86398
C         -2.26334       -6.27315        1.10308
C         -0.98568       -5.72593        1.63624
O         -2.44142       -7.46524        0.88001
H          0.79931       -0.12348        0.51725
H          0.87040        1.62743        0.42930
H          2.25411        0.66463       -0.12060
H         -0.52325        0.56806       -1.42144
H          0.74803        1.67277       -1.94707
H          0.89142       -0.12301       -3.44878
H          2.25313       -0.39676       -2.36075
H          0.57164       -4.13864       -1.15380
H          0.70513       -3.59401        0.50714
H         -3.31398       -0.62464        0.68538
H         -5.78604       -0.63543        0.80191
H         -7.01990       -2.78626        0.92487
H         -5.77201       -4.92741        0.93217
H         -0.56706       -6.43294        2.35776
H         -0.28206       -5.61884        0.81047
H         -1.13608       -4.78421        2.16203
