38

C         -0.51095        0.40154        0.38869
C          0.15081        0.62631        1.72379
O          0.24165        1.78175        2.15476
C          0.69593       -0.54181        2.52226
N          0.14427       -1.84124        2.07621
N         -1.00012       -2.05740        2.53097
C         -1.42254       -3.36130        2.21111
C         -0.92294       -4.43739        2.96288
C         -1.34480       -5.74885        2.71821
C         -2.28037       -6.00328        1.71717
Cl        -2.80551       -7.61445        1.43040
C         -2.79737       -4.96137        0.95501
C         -2.36689       -3.65028        1.21566
N         -2.92835       -2.58316        0.40825
O         -3.02139       -2.79324       -0.80959
O         -3.30630       -1.55622        0.98398
C          2.22241       -0.57311        2.55970
O          2.84901        0.14525        3.34824
N          2.97892       -1.40314        1.76391
C          2.60679       -1.82440        0.47280
C          2.35791       -3.18837        0.29207
C          2.00601       -3.67451       -0.96730
C          1.90785       -2.80066       -2.04951
C          2.19995       -1.44539       -1.88363
C          2.57742       -0.96008       -0.63024
Cl         3.00636        0.70492       -0.49042
H         -1.58744        0.55144        0.49609
H         -0.32349       -0.59600       -0.00817
H         -0.11613        1.12625       -0.32916
H          0.37894       -0.38483        3.56400
H         -0.19976       -4.24793        3.75458
H         -0.94477       -6.56313        3.31883
H         -3.53138       -5.16484        0.17774
H          3.93627       -1.06078        1.82321
H          2.44242       -3.87790        1.12902
H          1.81476       -4.73621       -1.10680
H          1.62205       -3.17804       -3.02907
H          2.14039       -0.77580       -2.73843
