26

C          0.92866        0.06046        0.23002
C          0.59359        0.46518       -1.19151
O          1.05715       -0.53289       -2.11105
C          2.32227       -0.36710       -2.58110
O          3.10929        0.49200       -2.20225
C          2.65563       -1.42141       -3.59335
C          1.96217       -1.20441       -4.93565
C          0.44796       -1.38659       -4.88883
O          2.50354       -2.19432       -5.83862
C          3.06960       -1.45986       -6.92491
C          3.32951       -0.08989       -6.36152
O          2.24586        0.10246       -5.45716
H          0.53055       -0.93535        0.45059
H          0.50988        0.77523        0.94383
H          2.01197        0.01134        0.37797
H         -0.49283        0.52662       -1.31215
H          0.99979        1.45366       -1.43508
H          2.43734       -2.41288       -3.17908
H          3.74520       -1.40096       -3.73029
H          0.03376       -1.41120       -5.90351
H          0.17393       -2.33175       -4.40868
H         -0.04851       -0.55922       -4.37222
H          2.33162       -1.42871       -7.73279
H          3.97631       -1.95205       -7.28608
H          3.34289        0.69397       -7.12291
H          4.26459       -0.05319       -5.79276
