50

C          2.32584       -1.85436        0.53135
C          1.54591       -3.15109        0.46654
C          0.89678       -3.47504        1.80239
C          0.16316       -2.32211        2.48831
S         -1.53059       -2.00335        2.00729
O         -2.05029       -3.21015        1.39822
O         -2.15276       -1.60452        3.26321
C         -1.77861       -0.62340        0.92831
S         -1.47660        0.94294        1.62579
O         -0.15030        0.86860        2.21838
O         -1.74855        1.95204        0.62625
C         -2.57978        1.33347        2.97461
C         -4.07116        1.43203        2.66792
C         -4.87432        0.13345        2.74429
C         -4.83612       -0.56319        4.09765
S         -1.45961       -0.75255       -0.80336
O         -1.60376       -2.16360       -1.13396
O         -2.36988        0.15729       -1.48073
C          0.16366       -0.37381       -1.41503
C          0.89195        0.96186       -1.51887
C          1.28628        1.91927       -0.39333
C          2.33846        1.50882        0.62457
H          3.02852       -1.82440        1.36634
H          1.61384       -1.04567        0.67818
H          2.86647       -1.65685       -0.39821
H          0.77429       -3.10996       -0.30698
H          2.22756       -3.95784        0.17801
H          0.24837       -4.35050        1.68861
H          1.70788       -3.79099        2.47331
H          0.05942       -2.65329        3.53392
H          0.72560       -1.39425        2.55721
H         -2.87399       -0.62759        0.87461
H         -2.33314        0.72083        3.83843
H         -2.25689        2.34964        3.24933
H         -4.51162        2.12495        3.39811
H         -4.22785        1.89151        1.68478
H         -5.92208        0.35973        2.51000
H         -4.54828       -0.56024        1.96892
H         -5.62346       -0.18274        4.75325
H         -4.99881       -1.63800        3.96328
H         -3.88973       -0.43701        4.62605
H          0.82654       -1.18497       -1.16557
H         -0.01526       -0.59890       -2.48565
H          1.84571        0.70932       -2.01167
H          0.35408        1.56550       -2.26032
H          1.71604        2.79674       -0.89665
H          0.41410        2.31595        0.11004
H          3.25518        1.15254        0.14871
H          2.59804        2.37731        1.24267
H          1.99593        0.75293        1.32490
