22

Cl        -2.29361        0.49385        1.33348
C         -0.67898        0.27852        0.76293
C          0.12110       -1.32208        1.01806
C          1.84169       -1.56887        0.57447
C          2.73690       -0.07111       -0.13006
C          4.04937       -0.05679       -0.01402
C          3.15017        0.41151        1.33744
C          1.43098        0.35655        1.09068
C          0.90869       -0.25346       -0.75251
Cl        -0.69580       -0.54480       -1.70322
C          2.04007       -0.68723       -1.98346
C          3.61001       -0.56931       -1.55451
Cl         4.84267       -0.97465       -2.68432
C          1.88918        1.57137       -0.47764
C          0.16660        1.68765        0.00985
H         -0.43385       -2.12038        1.50492
H          2.38513       -2.46857        0.84727
H          3.59491        0.71960        2.27697
H          0.89684        0.67178        2.00220
H          1.72695       -1.01352       -2.96592
H          2.45893        2.43945       -0.79547
H         -0.36211        2.63296       -0.08625
