18

C          0.90225        0.05140        0.10338
C          0.66408       -0.33525       -1.34605
O          1.12553       -1.66708       -1.62006
C          2.47676       -1.81042       -1.76532
O          3.29919       -0.91121       -1.65368
C          2.81690       -3.26408       -2.10705
C          2.41455       -4.20007       -0.97667
O          2.19198       -3.69551       -3.31266
H          0.48861       -0.70267        0.78036
H          0.44102        1.01857        0.32391
H          1.97130        0.12632        0.32465
H         -0.41252       -0.33077       -1.54678
H          1.12433        0.38007       -2.03690
H          3.90020       -3.32280       -2.25812
H          1.32421       -4.25537       -0.87835
H          2.75971       -5.21841       -1.18515
H          2.82914       -3.87497       -0.01773
H          1.23500       -3.54919       -3.20288
