43

C          0.94203       -0.23981        0.07856
C          0.49981       -0.18936        1.53451
C          0.97373        1.06214        2.28000
C          0.54717        2.39559        1.65558
C         -0.97781        2.63335        1.55045
C         -1.68955        2.64020        2.91904
C         -1.24549        3.73730        3.87730
C         -1.28930        3.92054        0.75464
O         -0.93719        3.73232       -0.62655
C          0.25838        4.24478       -1.02093
O          0.97103        4.98274       -0.35525
O          0.55745        3.70820       -2.24014
O          1.98793        3.92077       -2.46464
C          2.21090        3.94812       -3.88067
C          1.67160        2.67769       -4.54859
C          1.58459        5.20762       -4.48228
C          3.73313        3.99724       -4.05441
H          0.44972        0.53434       -0.51800
H          0.68122       -1.20795       -0.36084
H          2.02517       -0.10841       -0.00972
H         -0.59093       -0.27380        1.58718
H          0.90345       -1.06894        2.05035
H          0.63465        1.00924        3.32032
H          2.07063        1.04513        2.32130
H          1.00767        3.21108        2.22614
H          1.00170        2.44678        0.66220
H         -1.39901        1.80147        0.97104
H         -2.76972        2.74268        2.75481
H         -1.55557        1.66915        3.40914
H         -1.43149        4.73231        3.46292
H         -1.80644        3.66095        4.81466
H         -0.18320        3.65513        4.12306
H         -2.36776        4.11447        0.76992
H         -0.80083        4.80034        1.18776
H          0.57819        2.62987       -4.49818
H          1.95762        2.62806       -5.60445
H          2.04786        1.78193       -4.04147
H          1.94456        6.10485       -3.96605
H          1.81762        5.30128       -5.54800
H          0.49475        5.20180       -4.37211
H          4.15571        4.87480       -3.55151
H          4.20469        3.12147       -3.59267
H          4.02166        4.02907       -5.10995
