38

N          2.37758        0.12339       -0.19660
C          0.99399        0.08475       -0.00711
C          0.31777       -1.13113       -0.00803
C         -1.08027       -1.17715        0.06534
C         -1.85860       -0.00620        0.07901
C         -3.33147       -0.10782        0.19868
C         -4.06612       -1.16611       -0.18600
C         -5.52354       -1.20752       -0.03220
C         -6.27501       -0.36092       -0.86398
C         -7.67418       -0.36972       -0.83365
C         -8.36340       -1.18843        0.05790
N         -9.75395       -1.30283       -0.01774
C         -7.62796       -2.06527        0.85313
C         -6.21869       -2.06688        0.82678
S         -5.45670       -3.22351        1.93028
O         -5.76910       -2.80356        3.28057
O         -5.79617       -4.55141        1.46673
O         -3.85621       -3.09721        1.81485
C         -1.16267        1.21689        0.02034
S         -2.02819        2.76298       -0.00115
O         -2.79033        2.84429       -1.22698
O         -2.65050        2.94796        1.29232
O         -0.90068        3.91565       -0.09970
C          0.24333        1.25698       -0.04610
H          2.86576       -0.70487        0.13113
H          2.82162        0.97916        0.12256
H          0.87135       -2.06582       -0.05678
H         -1.54442       -2.16010        0.11044
H         -3.84608        0.74243        0.64202
H         -3.62920       -2.05154       -0.63919
H         -5.77472        0.30009       -1.57142
H         -8.21885        0.26871       -1.52498
H        -10.19239       -1.66548        0.82349
H        -10.22238       -0.47250       -0.36729
H         -8.15225       -2.76668        1.50072
H         -3.48529       -3.28634        2.70209
H         -1.34592        4.77991        0.02216
H          0.76274        2.20860       -0.12740
