34

C          0.69012        0.11109        0.13728
C          0.43030       -1.36320       -0.10563
O          1.02869       -2.16996        0.92310
C          2.34768       -2.44480        0.75851
O          3.05735       -1.97687       -0.11914
C          2.83126       -3.44973        1.79162
C          1.97511       -4.71081        1.80695
C          2.13756       -5.50351        0.52625
O          1.15102       -6.01616       -0.00144
C          3.54399       -5.76857        0.05248
C          3.64540       -6.33973       -1.33857
O          4.35785       -7.31707       -1.56585
C          2.89519       -5.74551       -2.48394
C          2.19483       -4.41429       -2.50426
C          3.49333       -4.57558       -3.23318
C          4.48197       -4.60759        0.28260
O          5.45673       -4.39283       -0.43691
C          4.29821       -3.80716        1.55882
H          0.33733        0.40540        1.13048
H          0.18150        0.72032       -0.61542
H          1.76023        0.33685        0.09835
H         -0.64668       -1.55784       -0.07558
H          0.78272       -1.67320       -1.09663
H          2.75563       -2.94905        2.76532
H          2.26622       -5.36240        2.63922
H          0.91449       -4.46879        1.93545
H          3.90715       -6.56197        0.72356
H          2.43557       -6.51616       -3.10010
H          1.28696       -4.33822       -3.09489
H          2.19038       -3.77186       -1.64059
H          4.36549       -4.07536       -2.82527
H          3.47170       -4.59909       -4.31649
H          4.91144       -2.90082        1.49486
H          4.68298       -4.41219        2.38803
