17

O          1.16552        0.31859       -0.02068
C          0.36468        0.83998       -1.01064
C          0.65207        0.52961       -2.34152
C         -0.14635        1.05526       -3.34787
C         -1.21864        1.88232       -3.01345
C         -1.51512        2.19584       -1.69224
N         -2.56603        3.00236       -1.44107
C         -2.81541        3.27961       -0.14407
C         -2.04429        2.77032        0.87731
N         -0.98944        1.96355        0.64476
C         -0.71163        1.66609       -0.65043
H          1.90110       -0.17004       -0.42020
H          1.48499       -0.11555       -2.60358
H          0.05930        0.82673       -4.39058
H         -1.84323        2.29593       -3.80239
H         -3.66054        3.92910        0.05107
H         -2.25071        2.99605        1.91665
