98

C          1.04951        0.39114        0.29900
C          0.81569        0.44837       -1.20253
C          1.27766       -0.82278       -1.91900
C          0.56103       -2.09781       -1.46168
C         -0.95806       -2.05428       -1.65298
C         -1.37854       -1.91139       -3.11876
C         -0.94626       -3.09917       -3.98557
C         -1.57316       -4.42486       -3.54063
C         -3.10373       -4.39952       -3.59028
C         -3.64273       -4.13512       -5.00117
C         -3.25496       -5.22900       -6.00262
C         -3.77563       -6.60516       -5.59362
C         -5.30069       -6.64512       -5.52602
C         -5.98186       -6.54275       -6.90071
C         -5.60003       -7.63507       -7.90761
C         -6.29986       -8.93366       -7.58623
O         -6.94137       -9.57127       -8.40036
O         -6.09324       -9.22426       -6.28397
C         -6.79820      -10.19092       -5.50064
C         -8.12652      -10.62290       -5.99323
C         -8.42020      -11.79571       -6.58655
C         -9.87243      -12.13987       -6.78963
C         -7.45251      -12.82442       -6.98414
C         -6.17653      -12.61417       -7.35640
C         -5.23176      -13.63217       -7.75702
C         -3.88472      -13.59115       -7.64843
C         -3.06846      -14.65480       -8.34940
C         -3.05079      -12.58259       -6.97715
C         -3.37049      -11.83802       -5.90309
C         -2.53639      -10.84789       -5.19274
C         -1.64289      -10.02680       -5.80751
C         -1.43865       -9.87908       -7.29763
C         -0.70923       -9.10596       -5.04217
C         -0.63095       -9.37961       -3.54999
C         -2.02683       -9.55850       -2.99664
C         -2.77858      -10.75391       -3.64869
C         -4.26030      -10.51246       -3.27798
C         -2.32988      -12.06497       -2.97156
H          0.45947       -0.40081        0.77025
H          0.75901        1.33734        0.76400
H          2.10624        0.20980        0.51864
H         -0.24446        0.64103       -1.40169
H          1.36309        1.30288       -1.61585
H          1.14619       -0.68771       -2.99918
H          2.35529       -0.95271       -1.76537
H          0.98457       -2.95262       -2.00119
H          0.78032       -2.29238       -0.40648
H         -1.39552       -2.96054       -1.21934
H         -1.39073       -1.23051       -1.07563
H         -2.46569       -1.78206       -3.16446
H         -0.97070       -0.98966       -3.54616
H         -1.20421       -2.88908       -5.02936
H          0.14367       -3.20010       -3.98383
H         -1.18386       -5.23376       -4.16879
H         -1.25145       -4.67957       -2.52524
H         -3.49084       -5.34467       -3.19470
H         -3.49830       -3.63873       -2.90870
H         -4.73064       -4.02543       -4.95066
H         -3.29122       -3.16901       -5.37627
H         -3.63422       -4.96028       -6.99406
H         -2.16630       -5.27790       -6.11308
H         -3.38928       -7.36256       -6.28098
H         -3.36951       -6.89098       -4.61820
H         -5.59506       -7.54493       -4.98466
H         -5.68919       -5.84433       -4.88977
H         -7.06764       -6.56284       -6.74410
H         -5.75632       -5.56561       -7.34126
H         -5.93759       -7.32232       -8.90264
H         -4.52322       -7.80816       -7.98338
H         -6.14290      -11.02970       -5.29085
H         -6.95490       -9.71697       -4.52404
H         -8.92745       -9.92368       -5.76349
H        -10.13729      -12.11065       -7.84935
H        -10.09433      -13.13346       -6.38633
H        -10.53109      -11.43910       -6.25974
H         -7.83513      -13.84330       -6.97916
H         -5.77624      -11.60975       -7.41685
H         -5.69053      -14.47961       -8.26602
H         -2.40051      -14.19467       -9.08817
H         -2.46260      -15.21875       -7.63376
H         -3.69564      -15.36933       -8.89432
H         -2.04672      -12.49269       -7.38814
H         -4.33686      -12.02573       -5.45585
H         -1.38626       -8.81710       -7.56417
H         -0.49560      -10.34981       -7.59554
H         -2.24819      -10.29198       -7.90109
H          0.30538       -9.18642       -5.45173
H         -1.03426       -8.07022       -5.20370
H         -0.13577       -8.53979       -3.04845
H         -0.02308      -10.26964       -3.35385
H         -2.58402       -8.62610       -3.16540
H         -1.97750       -9.68267       -1.90726
H         -4.89141      -11.38124       -3.48264
H         -4.37300      -10.30231       -2.20702
H         -4.65605       -9.64599       -3.81738
H         -2.47237      -12.01370       -1.88540
H         -2.91311      -12.92176       -3.32825
H         -1.27352      -12.27897       -3.16096
