35

C          1.07435       -0.39571        0.08283
C          0.72784        0.08373        1.48437
C          1.19594        1.51241        1.77314
C          0.62294        2.59272        0.85007
C         -0.90417        2.71334        0.85530
C         -1.50925        3.18452        2.18087
C         -1.16447        4.62466        2.60018
C         -1.71145        5.67704        1.62530
C         -2.29466        6.91738        2.32092
C         -1.18570        7.95883        2.34055
C         -0.45143        7.77340        1.02512
C         -0.61352        6.29887        0.77771
O          0.05253        5.68870       -0.04916
H          0.53717        0.17362       -0.68146
H          0.79710       -1.44813       -0.03430
H          2.14830       -0.30487       -0.10845
H         -0.35167       -0.00604        1.64627
H          1.20418       -0.58764        2.20896
H          0.95964        1.75663        2.81520
H          2.29028        1.54451        1.69759
H          1.07293        3.55167        1.12807
H          0.95224        2.40174       -0.17808
H         -1.20821        3.39332        0.05213
H         -1.34869        1.74649        0.59282
H         -2.60142        3.09978        2.10685
H         -1.21350        2.50108        2.98505
H         -1.60850        4.77203        3.59263
H         -0.08145        4.72625        2.73297
H         -2.47953        5.25748        0.96696
H         -2.67708        6.71314        3.32594
H         -3.13716        7.29803        1.72943
H         -0.50869        7.77487        3.18261
H         -1.58114        8.97446        2.44245
H          0.60212        8.05012        1.10464
H         -0.93510        8.32116        0.21121
