12

O          1.17917        0.23655       -0.03764
S          2.58073       -0.04197       -0.24911
O          3.10142       -0.77069       -1.38197
O          3.38428        1.34567       -0.07575
C          3.07165       -0.95370        1.15604
C          2.91741       -2.32477        1.23954
S          3.49568       -2.88447        2.75272
C          3.89357       -1.27006        3.18057
N          3.61879       -0.34253        2.28841
H          2.83397        1.94738        0.46681
H          2.50992       -2.99991        0.49929
H          4.34316       -1.04145        4.13885
