48

C          0.64348        0.32889        0.31594
O          0.27813        0.68988       -1.01986
C          0.88285        1.82715       -1.47089
O          1.59982        2.54745       -0.79054
C          0.54661        2.06648       -2.93277
C          0.32615        3.54089       -3.16004
C         -0.64170        4.26725       -2.24933
N          0.88439        4.24455       -4.08655
C          1.72383        3.67116       -5.00891
C          2.30785        4.73466       -5.91478
C          1.98758        2.34566       -5.05979
C          2.74158        1.75033       -6.21742
O          3.14621        2.36694       -7.19070
O          2.88963        0.41011       -6.05323
C          3.79098       -0.32272       -6.91702
C          3.41298       -0.27120       -8.39430
C          5.24086        0.07630       -6.65858
C          1.54306        1.41833       -3.93462
C          2.71301        0.71898       -3.23166
C          2.52778       -0.55009       -2.60840
C          3.51611       -1.21733       -1.83729
C          4.81140       -0.71036       -1.65463
C          5.05621        0.50918       -2.30788
N          6.19147        1.21457       -2.36442
O          5.90326        2.32943       -3.12988
N          4.58624        2.34031       -3.54335
C          4.03195        1.21753       -3.06853
H          0.33815       -0.70828        0.47950
H          0.12169        0.96921        1.03225
H          1.72743        0.38763        0.46299
H         -0.44485        1.62115       -3.10980
H         -0.07763        4.87412       -1.53607
H         -1.28643        4.92064       -2.84455
H         -1.27293        3.56020       -1.70501
H          1.55242        5.09535       -6.61917
H          2.63051        5.58753       -5.30275
H          3.20100        4.43879       -6.46270
H          3.68379       -1.36763       -6.60165
H          3.59187        0.71217       -8.83782
H          4.00495       -0.99331       -8.96685
H          2.35190       -0.50214       -8.52986
H          5.49128       -0.07497       -5.60332
H          5.92922       -0.52103       -7.26432
H          5.41971        1.13350       -6.87660
H          0.97122        0.61673       -4.42950
H          1.55075       -1.03431       -2.68530
H          3.25291       -2.16076       -1.35748
H          5.56591       -1.21529       -1.06635
