23

O          1.00873        0.63806        0.15894
C          2.19227        0.33251        0.24519
C          3.01503       -0.14496       -0.93674
C          3.93899        0.93527       -1.50233
C          5.39749        0.79030       -1.07257
Cl         6.15897       -0.63972       -1.80799
C          2.85021        0.39694        1.56301
C          2.65466       -0.64593        2.47316
C          3.29132       -0.59674        3.71416
C          4.10627        0.48838        4.02703
F          4.72774        0.52574        5.21242
C          4.28149        1.53972        3.13182
C          3.63705        1.50426        1.89575
H          3.54466       -1.06204       -0.65916
H          2.29530       -0.43505       -1.71335
H          3.89423        0.90413       -2.59839
H          3.58031        1.93001       -1.21184
H          5.97292        1.66451       -1.39131
H          5.50010        0.69300        0.01006
H          2.00779       -1.48399        2.22507
H          3.15645       -1.39254        4.44038
H          4.91195        2.37969        3.40705
H          3.74908        2.33657        1.20669
