19

N          0.98692        0.02284       -0.09647
P          0.39358        1.69019       -0.28699
N          1.47690        1.75857       -1.57193
O         -0.89546        1.05000       -0.82173
C         -0.21642        3.40438       -0.48285
C          0.68792        4.48023       -0.39676
C          0.24181        5.80379       -0.47503
C         -1.11639        6.07496       -0.61231
C         -2.03075        5.02889       -0.67175
C         -1.58479        3.70578       -0.60561
H          0.14447       -0.50538       -0.32342
H          1.57051       -0.09466       -0.92058
H          0.97321        2.02139       -2.41555
H          2.20541        2.45111       -1.45134
H          1.74976        4.29890       -0.25488
H          0.95373        6.62309       -0.41676
H         -1.46561        7.10422       -0.66247
H         -3.09426        5.23557       -0.76147
H         -2.32205        2.90557       -0.63722
