28

C          1.01133       -0.17160        0.02918
C          0.50894        1.20796        0.43935
C          0.98868        2.33049       -0.50355
C          0.34389        2.14417       -1.85489
O         -0.80232        2.42748       -2.16284
O          1.16077        1.53842       -2.73966
C          0.62241        3.72970        0.03462
O          1.19501        3.90203        1.33716
C          1.07446        4.93613       -0.77098
C          2.11446        4.89906       -1.71140
C          2.47582        6.04642       -2.42495
C          1.81946        7.25298       -2.19553
C          0.80428        7.31727       -1.24666
C          0.43718        6.17000       -0.54047
H          0.58811       -0.48552       -0.92953
H          0.72004       -0.91441        0.77877
H          2.10286       -0.18345       -0.05215
H         -0.58730        1.18870        0.47891
H          0.86279        1.39642        1.45885
H          2.07921        2.25418       -0.59636
H          0.61309        1.44046       -3.54713
H         -0.46966        3.79368        0.14188
H          0.56302        3.54170        1.98087
H          2.66857        3.98518       -1.90628
H          3.27784        5.99761       -3.15700
H          2.10604        8.14355       -2.74797
H          0.29996        8.25968       -1.05086
H         -0.35075        6.24314        0.20657
