29

C          1.35336        0.70071       -0.38731
N          0.22474        1.14535       -1.18951
S         -1.34887        0.96090       -0.64125
O         -1.37081        0.97191        0.80224
O         -2.10844        1.94117       -1.39173
C         -1.81516       -0.65904       -1.24168
C         -2.67844       -0.68601       -2.35651
C         -3.12336       -1.89699       -2.88906
O         -3.97325       -2.01630       -3.96294
C         -4.76523       -0.87470       -4.27128
C         -2.70077       -3.10556       -2.31527
N         -2.98820       -4.33456       -2.93830
C         -1.82072       -3.07303       -1.22946
C         -1.40053       -1.86180       -0.64091
C         -0.48217       -1.98864        0.54044
H          1.60815       -0.33161       -0.63367
H          1.16343        0.79007        0.68472
H          2.22188        1.32626       -0.61478
H          0.33917        1.98578       -1.75497
H         -2.98556        0.25098       -2.81127
H         -5.27730       -0.48778       -3.38328
H         -4.15934       -0.09834       -4.74836
H         -5.53337       -1.18556       -4.98611
H         -3.06421       -5.11581       -2.29740
H         -3.79130       -4.24439       -3.55946
H         -1.45315       -4.01642       -0.82811
H         -0.81231       -2.81171        1.18529
H          0.53375       -2.21033        0.20050
H         -0.45469       -1.10921        1.17905
