20

C          0.85187       -0.19764        0.06043
O          0.51482        0.55816       -1.09411
C          0.98956        1.92260       -1.13569
C          0.41516        2.74140        0.02265
C          2.53243        1.99869       -1.23103
N          3.04137        1.21485       -2.38492
C          3.02132        3.44122       -1.32873
O          3.81284        3.97123       -0.56242
O          2.53000        4.12931       -2.37804
H          0.41314       -1.19343       -0.05120
H          0.43693        0.24925        0.96708
H          1.93352       -0.31904        0.15480
H          0.56263        2.33632       -2.05837
H          0.87934        2.47017        0.97630
H          0.57125        3.81358       -0.13135
H         -0.66093        2.56297        0.12144
H          2.97535        1.57036       -0.32483
H          4.03205        1.02153       -2.25321
H          2.55157        0.31859       -2.39681
H          2.99990        4.98744       -2.34813
