24

C          1.02733        0.02051       -0.15807
C          0.64448        1.00043        0.90319
C         -0.24789        1.98579        0.71771
C         -0.64221        2.94483        1.75807
C          0.27981        3.49961        2.64932
C         -0.13219        4.43372        3.60298
C         -1.47219        4.82926        3.67122
O         -1.82439        5.75407        4.61473
C         -2.41073        4.29398        2.78325
O         -3.75052        4.56129        2.69496
C         -4.33824        5.37969        3.69493
C         -1.97753        3.36283        1.82654
H          0.51314        0.21252       -1.10508
H          0.77935       -0.99493        0.16566
H          2.10533        0.07065       -0.33916
H          1.12397        0.86349        1.86949
H         -0.74887        2.09691       -0.24170
H          1.32974        3.22097        2.60290
H          0.61033        4.84608        4.27976
H         -1.03429        6.01541        5.11452
H         -4.19164        4.95976        4.69524
H         -3.97837        6.41062        3.62343
H         -5.41697        5.40158        3.50967
H         -2.71005        2.95217        1.13389
