34

C          1.01892        0.31613        0.08935
C          0.31979       -0.09306        1.16381
C         -1.16625       -0.28576        1.13642
C         -1.68473       -1.67058        1.52320
O         -2.47267       -1.82167        2.45800
C         -1.39039       -2.84744        0.65847
C         -2.44224       -3.72791        0.37822
C         -2.23132       -4.84865       -0.43237
C         -0.96425       -5.11965       -0.97158
C         -0.74610       -6.27997       -1.85321
C         -1.43650       -6.33809       -3.08040
C         -1.25199       -7.39891       -3.97063
C         -0.36992       -8.42665       -3.65430
C          0.32106       -8.39748       -2.44444
C          0.13377       -7.33778       -1.54795
Cl         1.00785       -7.41049       -0.05426
C          0.08349       -4.23674       -0.66894
C         -0.12195       -3.11793        0.14574
C          1.07995       -0.36980        2.40237
O          2.29035       -0.47671        2.49496
O          0.27879       -0.52158        3.46201
H          0.53300        0.53461       -0.85658
H          2.09877        0.44374        0.12371
H         -1.62448        0.44025        1.82112
H         -1.58003       -0.05553        0.14608
H         -3.43321       -3.54609        0.79116
H         -3.06666       -5.51713       -0.63359
H         -2.12249       -5.53832       -3.35626
H         -1.79550       -7.41732       -4.91228
H         -0.22156       -9.25154       -4.34663
H          1.00489       -9.20703       -2.20067
H          1.08303       -4.42150       -1.06056
H          0.74057       -2.50704        0.38156
H          0.88080       -0.72887        4.20641
