19

O          1.74462        0.32224        1.51315
C          2.12295        0.02513        0.39732
O          1.80011        0.68260       -0.73304
C          3.05795       -1.15504        0.11976
O          2.56535       -2.26822       -0.03693
N          4.39753       -0.93913       -0.10649
C          5.20892        0.20436       -0.00011
C          6.50014        0.09840       -0.53877
C          7.38798        1.17661       -0.49986
C          6.99994        2.37276        0.09269
C          5.72998        2.48278        0.65132
C          4.83880        1.40330        0.60919
H          2.18070        0.26036       -1.52887
H          4.85694       -1.78892       -0.41545
H          6.83361       -0.82318       -1.01080
H          8.38144        1.08030       -0.93069
H          7.68719        3.21413        0.13009
H          5.42926        3.40980        1.13514
H          3.88653        1.54854        1.10455
