18

C          0.86699        0.07258       -0.05461
C         -0.33325        0.07271       -0.05465
C         -1.86495        0.07292       -0.05471
C         -3.16881        0.07292       -0.05471
C         -4.68881        0.07292       -0.05471
C         -5.31629       -0.83557        0.62556
C         -5.98433       -1.72582        1.30095
C         -6.88147       -2.76860        0.69284
C         -6.39495       -4.19044        0.96572
O         -6.52728       -4.52148        2.34441
H          1.93173        0.07235       -0.05437
H         -5.20261        0.84010       -0.62149
H         -5.97079       -1.66125        2.38555
H         -7.88666       -2.63609        1.11012
H         -6.95127       -2.61740       -0.39114
H         -7.00906       -4.90056        0.40272
H         -5.35193       -4.33378        0.66384
H         -5.82994       -4.04176        2.82343
