44

C          1.28102       -0.05634        0.14333
C          0.59501        0.22111        1.47576
N          0.93163        1.56211        1.99480
C          1.91471        1.71638        2.96744
C          2.36962        2.86672        3.48928
C          3.40644        2.89041        4.53936
O          3.87889        3.86660        5.09258
O          3.84534        1.66349        4.88874
C          1.77358        4.10840        2.94814
O          2.07899        5.22237        3.35891
C          0.76989        3.98524        1.86270
C          0.28731        5.16342        1.28814
C         -0.65225        5.09675        0.27305
F         -1.08048        6.25702       -0.24648
C         -1.18815        3.88039       -0.17028
N         -2.17182        3.84107       -1.14389
C         -3.34736        2.97737       -1.02615
C         -4.61770        3.79651       -1.36268
N         -4.56168        4.50173       -2.66360
C         -3.33658        5.33978       -2.75656
C         -3.47514        6.61973       -1.92804
C         -2.03181        4.57244       -2.40763
C         -0.68251        2.71042        0.44136
F         -1.18079        1.53757        0.00994
C          0.33182        2.71744        1.43095
H          1.01202        0.67441       -0.62485
H          0.99861       -1.04752       -0.22555
H          2.37029       -0.03133        0.25156
H         -0.48794        0.07371        1.41779
H          0.93194       -0.54476        2.18734
H          2.31896        0.76546        3.30907
H          4.51114        1.86523        5.58137
H          0.63421        6.13845        1.62075
H         -3.25350        2.13109       -1.71728
H         -3.45930        2.57349       -0.01298
H         -4.80350        4.52594       -0.56511
H         -5.48462        3.12661       -1.36983
H         -4.50116        3.79055       -3.39229
H         -3.25394        5.65790       -3.80365
H         -2.60893        7.27134       -2.09070
H         -4.36718        7.18228       -2.22218
H         -3.54045        6.41859       -0.85437
H         -1.17307        5.25324       -2.41382
H         -1.83815        3.83563       -3.19915
