17

C          0.97240       -0.03358       -0.04699
C          0.43185       -1.31726       -0.65948
C          0.91247       -2.58480        0.06042
C          0.44322       -2.67890        1.50966
C          0.46832       -3.81184       -0.70281
O          1.20343       -4.63507       -1.22347
O         -0.86891       -3.94917       -0.77647
H          0.58149        0.12299        0.96274
H          0.67311        0.82693       -0.65403
H          2.06560       -0.04998        0.00208
H         -0.66425       -1.27397       -0.66750
H          0.74436       -1.36100       -1.71073
H          2.01030       -2.59694        0.05601
H         -0.64518       -2.58159        1.58588
H          0.71885       -3.64572        1.94548
H          0.89858       -1.89707        2.12516
H         -0.99493       -4.77412       -1.29048
