47

C          0.76538       -0.25943        0.10006
C          0.33152       -1.68310       -0.24239
C          1.24541       -2.74312        0.36769
O         -1.07205       -1.88941        0.04738
C         -1.47641       -1.92632        1.34990
O         -0.72297       -1.89174        2.31807
C         -2.99835       -1.83213        1.48832
C         -3.27383       -0.34726        1.74587
N         -3.71566       -2.44312        0.32746
P         -5.49566       -2.44312        0.32746
O         -5.53406       -2.39589        1.86028
O         -5.49565       -0.88821       -0.27357
C         -4.69616       -0.25946       -1.20090
C         -4.57069        1.12017       -1.00739
C         -3.58196        1.84235       -1.67504
C         -2.72668        1.18847       -2.55649
C         -2.92224       -0.16492       -2.83442
C         -3.94333       -0.88063       -2.19515
O         -7.22566       -2.44312        0.32747
C         -8.02257       -1.33393        0.23952
C         -8.81721       -0.97769        1.32451
F         -8.81664       -1.72666        2.43571
C         -9.64379        0.13981        1.24941
F        -10.42066        0.47090        2.29015
C         -9.67540        0.90733        0.09161
F        -10.44799        2.00088        0.03090
C         -8.92545        0.52660       -1.01194
F         -8.96868        1.25236       -2.13788
C         -8.13468       -0.61454       -0.95024
F         -7.47953       -1.02694       -2.04628
H          0.65934       -0.04248        1.16736
H          0.14058        0.46606       -0.43214
H          1.80986       -0.08764       -0.18000
H          0.40694       -1.78973       -1.33112
H          1.35382       -2.62729        1.45004
H          0.84834       -3.74634        0.18533
H          2.25085       -2.67772       -0.06090
H         -3.23900       -2.41909        2.38159
H         -2.83694        0.28136        0.96331
H         -4.33748       -0.11685        1.83903
H         -2.80442       -0.02991        2.68463
H         -3.24923       -2.16965       -0.52148
H         -5.19089        1.62251       -0.26931
H         -3.45241        2.90214       -1.47034
H         -1.91211        1.73447       -3.02716
H         -2.25344       -0.66820       -3.52981
H         -4.06339       -1.93318       -2.43273
