39

C          1.07631       -0.33770       -0.05207
S          0.02603       -0.58601        1.38457
C          0.67541       -2.06909        2.00288
N         -0.01429       -3.16280        1.91299
C          0.82917       -4.20768        2.58180
C          1.11586       -5.28416        1.52440
C          0.14715       -4.70080        3.86119
C         -0.43535       -5.97454        3.96401
C         -1.07375       -6.38389        5.13989
C         -1.14891       -5.52786        6.23448
C         -0.59071       -4.25842        6.15447
C          0.04357       -3.84888        4.98028
C          2.13985       -3.46777        2.88454
O          3.22293       -3.94720        3.19365
N          1.86241       -2.14400        2.66303
N          2.92516       -1.22604        2.60254
C          2.75186        0.01124        3.27522
C          3.64220        1.04455        2.94651
C          3.46397        2.33407        3.45067
C          2.40701        2.60056        4.31573
C          1.55719        1.56946        4.70787
C          1.74076        0.27751        4.20611
H          0.83393        0.63017       -0.49989
H          0.89366       -1.11990       -0.79221
H          2.13577       -0.33076        0.21060
H          1.72125       -6.10171        1.93167
H          0.18820       -5.70867        1.12228
H          1.66522       -4.86619        0.67161
H         -0.41557       -6.67359        3.13202
H         -1.52005       -7.37348        5.19649
H         -1.64899       -5.84617        7.14480
H         -0.65303       -3.58006        7.00134
H          0.45013       -2.84197        4.95757
H          3.79093       -1.66931        2.93512
H          4.45234        0.86031        2.24452
H          4.13420        3.13339        3.14611
H          2.24241        3.61084        4.68098
H          0.73259        1.77389        5.38629
H          1.04898       -0.49491        4.52583
