47

C          2.54355        1.28400       -0.55270
N          1.09377        1.32788       -0.75229
C          0.42680        1.85251        0.46047
C         -1.11715        1.71690        0.44257
N         -1.63027        0.40346        0.04029
C         -1.88474       -0.58593        1.09950
C         -0.85684       -0.75133        2.22457
O         -0.86127        0.09774        3.13495
N          0.03536       -1.82078        2.28622
C          0.37822       -2.33479        3.57497
C         -0.66435       -2.59460        4.49064
C         -0.40804       -3.14324        5.74955
C          0.89916       -3.41605        6.13044
C          1.94295       -3.14326        5.24768
C          1.68588       -2.62058        3.96534
C          2.85846       -2.33321        3.12148
O          3.91971       -1.99798        3.63917
N          2.82254       -2.57769        1.77568
C          1.74586       -2.97620        0.97140
C          2.08546       -3.60727       -0.23224
C          1.09200       -3.99749       -1.11856
C         -0.21555       -3.72849       -0.77520
N         -0.57511       -3.06580        0.34798
C          0.39035       -2.68150        1.21649
C         -0.94171       -0.09215       -1.14783
C          0.59181       -0.01561       -1.07522
H          2.94315        2.29278       -0.40958
H          2.82233        0.67402        0.31560
H          3.04311        0.86294       -1.43273
H          0.81480        1.35147        1.35458
H          0.67180        2.91792        0.55441
H         -1.50068        2.44372       -0.28754
H         -1.53734        2.03371        1.40402
H         -2.78371       -0.22815        1.62512
H         -2.22667       -1.54004        0.69881
H         -1.69974       -2.39730        4.21853
H         -1.23063       -3.35137        6.42986
H          1.10869       -3.82968        7.11388
H          2.96730       -3.33805        5.56198
H          3.75285       -2.58244        1.37398
H          3.12473       -3.80280       -0.48575
H          1.33484       -4.49250       -2.05252
H         -1.03642       -4.01501       -1.42776
H         -1.27180        0.51668       -2.00055
H         -1.26669       -1.10804       -1.39353
H          0.99731       -0.33939       -2.04125
H          0.95391       -0.71559       -0.32654
