15

C         -2.07588       -0.05339       -0.00693
C         -0.71262       -0.66685       -0.00670
C          0.45470        0.00478       -0.01230
C          1.77067       -0.72554       -0.01179
C          0.56778        1.50443       -0.02264
H         -2.21678        0.59601        0.86232
H         -2.24844        0.51581       -0.92530
H         -2.83594       -0.84002        0.04329
H         -0.69608       -1.75567       -0.00282
H          2.34609       -0.47040       -0.90765
H          2.35771       -0.44870        0.87001
H          1.64168       -1.81292        0.00280
H          1.12766        1.84641        0.85408
H          1.09724        1.83565       -0.92208
H         -0.40343        2.00684       -0.00871
