40

C          0.95702        0.28352       -0.19737
C          0.49079       -0.17060       -1.57269
C          0.99089       -1.56460       -1.96064
C          0.59831       -2.69582       -1.00251
C         -0.91796       -2.90459       -0.78724
C         -1.69809       -3.15556       -2.09520
C         -1.28026       -4.39703       -2.87264
C         -1.18472       -4.03128        0.23318
O         -0.71297       -3.65578        1.53809
C          0.44324       -4.23406        1.94458
O          1.16514       -4.98577        1.31063
C          0.80498       -3.67149        3.25161
C          1.88350       -2.78093        3.30818
C          2.26577       -2.23632        4.53372
C          1.57997       -2.59063        5.69700
C          0.51082       -3.48999        5.64128
C          0.12351       -4.03207        4.41544
O         -0.90617       -4.92765        4.35853
H          0.50483       -0.31663        0.59794
H          0.66884        1.32597       -0.02810
H          2.04567        0.21390       -0.10745
H         -0.60279       -0.13064       -1.61898
H          0.85810        0.54520       -2.31812
H          0.64348       -1.79743       -2.97357
H          2.08663       -1.53717       -2.02072
H          1.04726       -3.62748       -1.36840
H          1.08021       -2.49800       -0.03934
H         -1.31318       -1.98092       -0.34434
H         -2.76658       -3.23961       -1.85943
H         -1.60844       -2.28302       -2.75222
H         -1.43035       -5.30840       -2.28688
H         -1.88511       -4.48757       -3.78098
H         -0.23161       -4.34906       -3.17885
H         -2.26485       -4.18678        0.33477
H         -0.75727       -4.98617       -0.09234
H          2.42020       -2.51386        2.40093
H          3.09988       -1.54039        4.58280
H          1.88406       -2.16860        6.65233
H         -0.00041       -3.75723        6.56137
H         -1.24157       -5.08825        5.25589
