21

N          0.68919       -0.18589        0.15586
C          0.26534        0.31641        1.34136
N         -0.28042        1.54018        1.13164
N          0.41611       -0.36211        2.42735
C         -0.04495        0.17792        3.58387
N         -0.04742        1.44753        3.94032
C         -0.59750        1.60139        5.20013
C         -0.72313        2.81661        5.90433
C         -1.33642        2.83206        7.16146
C         -1.82701        1.65602        7.71973
C         -1.70098        0.43653        7.04727
C         -1.07246        0.43205        5.79088
S         -0.74248       -0.89156        4.74742
H          1.14327        0.51973       -0.41220
H          1.29808       -0.98518        0.30072
H         -0.67304        1.94229        1.98240
H         -0.95910        1.54010        0.37955
H         -0.34072        3.73252        5.46457
H         -1.43111        3.77096        7.70213
H         -2.31028        1.68222        8.69433
H         -2.07752       -0.48241        7.48628
