42

C          1.43089       -0.13857        0.27570
C          0.47408        0.60474       -0.61361
C         -0.62093       -0.22326       -1.23137
C          0.59717        1.91220       -0.90458
C          1.74770        2.81527       -0.55480
C          2.91025        2.69593       -1.55801
C          2.77139        3.41573       -2.89020
C          3.33015        4.81963       -2.93309
C          2.25054        2.90235       -4.02525
C          1.51406        1.61149       -4.25109
C         -0.01429        1.81869       -4.33337
C         -0.60764        2.38604       -5.61066
C         -1.28378        1.38546       -6.51615
C         -0.70469        3.70041       -5.90486
C         -0.23330        4.88033       -5.11607
O          0.74079        5.57438       -5.88289
H          1.14490       -1.19120        0.37459
H          1.42139        0.29176        1.28293
H          2.44964       -0.10956       -0.12001
H         -1.37580        0.39333       -1.73029
H         -0.18861       -0.89150       -1.98585
H         -1.12989       -0.83257       -0.47980
H         -0.16756        2.39100       -1.50819
H          1.39109        3.85040       -0.49457
H          2.11508        2.56312        0.44748
H          3.80666        3.09035       -1.05924
H          3.14766        1.64063       -1.73874
H          3.64485        5.10027       -3.94509
H          2.56838        5.53383       -2.60355
H          4.20807        4.92600       -2.28920
H          2.30766        3.51223       -4.92341
H          1.88401        1.13901       -5.16849
H          1.73251        0.90887       -3.43996
H         -0.48240        0.84528       -4.13714
H         -0.35279        2.45802       -3.51559
H         -2.11433        1.84401       -7.06634
H         -0.57291        0.97152       -7.23534
H         -1.72110        0.56200       -5.94106
H         -1.20814        3.98599       -6.82863
H         -1.06668        5.56448       -4.93368
H          0.19263        4.62340       -4.14559
H          1.32211        4.90394       -6.27933
