26

O          0.76606       -0.02809        0.11897
C          1.99097        0.01468        0.11107
O          2.72173       -0.02786        1.24701
C          2.81268        0.07090       -1.17534
N          2.63507       -1.16195       -1.96641
C          2.08194       -1.09944       -3.25825
C          0.96822       -1.90834       -3.63423
N          0.33016       -2.84288       -2.68044
O         -0.77680       -3.30559       -2.98758
O          0.94441       -3.12901       -1.64304
C          0.41168       -1.86443       -4.93342
C          0.95715       -1.01317       -5.89598
N          0.39228       -0.98149       -7.25296
O         -0.52284       -1.77299       -7.51043
O          0.87521       -0.16988       -8.05247
C          2.05096       -0.20915       -5.58180
C          2.60058       -0.26744       -4.28535
N          3.78767        0.55652       -4.07666
O          3.69954        1.74628       -4.40962
O          4.79665        0.02115       -3.60313
H          3.69027       -0.05702        1.12139
H          2.50775        0.97800       -1.70783
H          3.87429        0.17292       -0.92866
H          2.20674       -1.90358       -1.38950
H         -0.43942       -2.49732       -5.19013
H          2.49270        0.44733       -6.33291
