18

N         -3.45272        0.02044       -0.04705
C         -2.05795       -0.06139        0.06262
C         -1.33052        1.13604       -0.04478
C          0.06773        1.14429       -0.07255
C          0.76492       -0.05679       -0.03470
Cl         2.48339       -0.05214       -0.07091
C          0.07509       -1.26126        0.01400
C         -1.33114       -1.26093        0.03970
S         -2.08730       -2.86178        0.07521
O         -1.80976       -3.50034       -1.19327
O         -1.73101       -3.47583        1.33486
O         -3.68715       -2.63612        0.08761
H         -3.84975        0.89201        0.29504
H         -3.95054       -0.78716        0.33609
H         -1.85466        2.08799       -0.10908
H          0.59978        2.09005       -0.13684
H          0.62337       -2.20159        0.02376
H         -4.02600       -2.99897       -0.76080
