17

C          1.16960        0.09292        0.05860
O          0.40102        0.96413        0.88298
C          0.82744        0.94167        2.19224
N          2.09853        0.62865        2.50842
C          2.44042        0.65329        3.81457
N          1.66653        0.94399        4.87052
C          0.40617        1.25482        4.51924
N         -0.60923        1.58508        5.37678
C         -1.65090        1.80539        4.60335
N         -1.34479        1.63787        3.28042
C         -0.03225        1.27233        3.21046
H          0.75451        0.14076       -0.95279
H          1.08518       -0.94268        0.40672
H          2.21835        0.40299        0.00176
H          3.47386        0.40553        4.03889
H         -2.64079        2.08514        4.93939
H         -1.97257        1.75058        2.49591
