62

C          1.51973        0.24288        0.59429
C          0.60565       -0.95351        0.38095
C         -0.45015       -0.97577        1.50688
O         -0.09439       -0.79828       -0.84264
C         -0.48255       -2.12714       -1.14478
C         -0.38151       -2.35823       -2.63538
C         -0.16802       -3.85096       -2.59042
C         -0.33821       -4.63997       -3.87711
C         -1.72396       -4.23453       -4.44011
C         -2.33385       -5.19969       -5.41693
C         -2.16081       -6.60358       -4.93057
C         -3.19638       -7.29946       -4.43395
C         -3.14173       -8.77345       -4.43391
O         -4.15408       -9.44385       -4.47611
C         -1.79399       -9.37614       -4.42978
C         -0.70273       -8.59468       -4.45840
C         -0.71634       -7.08757       -4.72976
C          0.13933       -6.89621       -5.99338
C         -0.25738       -6.16891       -3.51729
C          1.08365       -6.45052       -2.80324
O          2.19354       -6.31546       -3.67526
C          1.26603       -5.57015       -1.51022
C          1.06967       -4.01874       -1.67353
C          2.40272       -3.41060       -2.15401
C          0.51873       -3.11174       -0.44745
C         -0.10529       -4.02235        0.62133
O         -1.28348       -4.38467        0.56733
C          0.80511       -4.48079        1.77094
O          2.09898       -4.92323        1.41445
O          1.36669       -2.17944        0.25481
H          1.89356        0.27270        1.62340
H          0.98837        1.18141        0.39265
H          2.38662        0.20366       -0.07072
H         -0.00041       -1.14979        2.48640
H         -1.00814       -0.03043        1.52321
H         -1.21215       -1.74790        1.36029
H         -1.51951       -2.28051       -0.82370
H          0.44747       -1.81824       -3.10764
H         -1.29435       -2.02377       -3.13220
H         -1.00877       -4.24738       -1.99242
H          0.43669       -4.36762       -4.60036
H         -1.65748       -3.25010       -4.91795
H         -2.44209       -4.12593       -3.61356
H         -1.88005       -5.08055       -6.40666
H         -3.39522       -4.95349       -5.55184
H         -4.12115       -6.84511       -4.10598
H         -1.76319      -10.45823       -4.38305
H          0.26785       -9.08225       -4.40066
H          1.13216       -7.34420       -5.87115
H         -0.32942       -7.37558       -6.86214
H          0.29327       -5.84568       -6.25163
H         -1.00853       -6.34786       -2.72660
H          1.09120       -7.49611       -2.47372
H          2.17927       -5.43734       -4.08580
H          2.26414       -5.77051       -1.10228
H          0.54346       -5.95863       -0.78538
H          2.70977       -3.77512       -3.13462
H          2.37920       -2.31823       -2.21119
H          3.20271       -3.65890       -1.44347
H          0.91056       -3.64875        2.47255
H          0.30515       -5.29896        2.29936
H          2.04489       -5.86453        1.17704
