15

C          0.93355        0.02132       -0.02790
C          0.42198       -1.24282        0.65126
C          0.92603       -1.39654        2.09284
C          0.42105       -0.30103        3.02729
S          0.38732       -3.01987        2.74323
H          0.52858        0.92200        0.44248
H          0.62732        0.03204       -1.07901
H          2.02638        0.07165        0.00679
H         -0.67506       -1.23612        0.62393
H          0.75248       -2.10022        0.05077
H          2.02166       -1.39624        2.09987
H         -0.67287       -0.23630        3.02378
H          0.75175       -0.47150        4.05824
H          0.81181        0.67720        2.72903
H         -0.93215       -2.79614        2.65302
