70

C          1.03386       -0.10207        0.34121
C          0.29428        0.32609        1.37923
C          0.93018        0.82802        2.60665
C          1.81823        0.06954        3.27694
C          2.53388        0.43882        4.48290
C          3.27055       -0.36843        5.27490
C          3.40117       -1.86231        5.06007
C          4.85882       -2.22977        4.82527
C          5.70258       -1.81901        6.02302
C          5.59260       -0.32376        6.40290
C          6.30939       -0.16278        7.76788
C          4.08811        0.12205        6.49338
C          4.22921        1.64572        6.63144
C          5.40360        2.02506        5.72481
C          6.13394        0.70322        5.35111
C          7.66491        0.89955        5.21388
C          8.40038       -0.35955        4.74689
C          7.99155        1.99330        4.21505
C          8.75973        3.05301        4.51666
C          9.22409        4.08335        3.53055
O          8.86891        5.36086        4.04120
C         10.71248        4.05611        3.33813
C         11.33087        3.08360        2.36292
C         11.35184        4.55831        2.06841
C          0.41771        2.18932        3.02456
C         -1.11264        2.19604        3.13423
O         -1.57510        3.50830        3.45183
C         -1.76072        1.72642        1.83419
C         -1.22630        0.35770        1.40651
O         -1.78110        0.03608        0.13246
H          0.57797       -0.49628       -0.56184
H          2.12003       -0.09043        0.36774
H          2.04685       -0.91206        2.86771
H          2.48026        1.49442        4.72070
H          3.02128       -2.38139        5.94929
H          2.80677       -2.23833        4.22476
H          5.23535       -1.76023        3.90914
H          4.94315       -3.31310        4.68009
H          6.73742       -2.11867        5.85066
H          5.36959       -2.42183        6.88047
H          5.80091       -0.74467        8.54511
H          7.34224       -0.52419        7.71487
H          6.35425        0.87421        8.11266
H          3.61400       -0.28713        7.39484
H          3.32659        2.22203        6.41544
H          4.47700        1.90066        7.66950
H          6.05709        2.73089        6.24943
H          5.04362        2.52263        4.81667
H          5.76082        0.41256        4.35885
H          8.07770        1.18494        6.18953
H          7.87399       -0.85010        3.92025
H          9.41557       -0.12945        4.40144
H          8.51368       -1.07398        5.56547
H          7.62963        1.85669        3.19711
H          9.13906        3.17090        5.52974
H          8.71233        3.96131        2.56819
H          7.91130        5.33241        4.20322
H         11.24287        4.24695        4.26532
H         12.25844        2.60343        2.65275
H         10.67639        2.45703        1.76734
H         10.70911        4.93626        1.28243
H         12.29789        5.08050        2.15741
H          0.74218        2.93853        2.28911
H          0.82982        2.53312        3.97779
H         -1.42362        1.53958        3.95604
H         -1.29674        4.11079        2.74098
H         -1.59612        2.46807        1.04013
H         -2.85156        1.68636        1.94857
H         -1.57825       -0.40711        2.10961
H         -1.46030        0.70428       -0.49621
