35

C          1.13152        0.52870        0.01001
C          0.30454        0.02427        1.17583
O          1.02093       -0.25915        2.36733
P          2.75093       -0.25915        2.36733
S          2.72799        1.03864        3.90093
O          2.65540       -1.82422        2.93329
C          2.07545       -2.78823        2.05216
C          0.82451       -3.38156        2.67096
O          4.48093       -0.25915        2.36733
C          5.23929       -1.35033        2.26553
N          6.32699       -1.60992        3.04146
C          6.66012       -2.81368        2.65681
Cl         7.89885       -3.75403        3.33325
N          5.84673       -3.24023        1.64967
C          5.73679       -4.53538        0.99393
C          6.97674       -4.89299        0.17850
C          5.34002       -5.65663        1.95728
N          4.97011       -2.25084        1.31510
H          1.57125        1.50365        0.24002
H          0.50276        0.63405       -0.87988
H          1.94886       -0.15739       -0.23030
H         -0.46320        0.76415        1.42501
H         -0.21926       -0.89182        0.88420
H          1.84593       -2.33897        1.07995
H          2.79513       -3.58987        1.87155
H          0.17308       -2.61039        3.09150
H          0.26019       -3.95421        1.92821
H          1.09394       -4.05454        3.49072
H          4.90780       -4.43027        0.28024
H          7.84664       -5.08979        0.81138
H          6.79491       -5.79366       -0.41755
H          7.23955       -4.08086       -0.50769
H          4.47053       -5.37156        2.55976
H          5.07911       -6.56358        1.40097
H          6.14883       -5.91878        2.64557
