36

O          0.67991       -0.58842       -0.43964
C          1.84737       -0.44293       -0.10156
O          2.88599       -0.46286       -0.96737
C          2.28082       -0.30655        1.34803
N          3.01100        0.95337        1.66699
C          3.43621        0.89434        3.08808
C          4.89712        0.37608        3.26530
N          5.93509        1.39357        3.05088
C          7.29347        0.98916        3.46536
C          8.04244        0.13430        2.46014
O          9.02271        0.47963        1.81992
O          7.50342       -1.08460        2.27293
C          5.91062        2.10545        1.76388
C          5.99133        1.25027        0.49650
O          5.35565        0.24710        0.20323
O          6.87774        1.76173       -0.38322
C          2.21159        2.16084        1.35176
C          2.61844        2.74393       -0.01339
O          2.22443        2.33260       -1.09562
O          3.50986        3.76306        0.05353
H          3.72999       -0.20978       -0.52186
H          1.38977       -0.41539        1.97901
H          2.92454       -1.17350        1.54802
H          3.36512        1.87212        3.58006
H          2.76567        0.24144        3.66535
H          4.97191        0.05016        4.31244
H          5.05859       -0.52132        2.66031
H          7.88931        1.89820        3.62289
H          7.28768        0.47775        4.43446
H          8.03004       -1.46936        1.54113
H          5.00679        2.70653        1.71820
H          6.72210        2.84356        1.74686
H          6.83895        1.16985       -1.16291
H          1.13182        1.97995        1.35875
H          2.38079        2.95696        2.08673
H          3.72281        4.06031        0.95601
