31

N          0.97173       -0.13741       -0.08887
C          0.35184       -1.16745       -0.53085
O          1.00252       -2.30343       -0.82672
N         -0.99800       -1.15242       -0.74303
N         -1.56317       -2.20071       -0.35974
C         -3.02956       -2.13019       -0.51165
C         -3.64188       -1.75913        0.84766
O         -3.13790       -0.48174        1.27376
C         -5.18917       -1.69830        0.80659
O         -5.73413       -2.95270        0.38057
C         -5.76809       -1.30710        2.20041
O         -5.33960        0.00893        2.58223
C         -7.31896       -1.37058        2.23120
O         -7.79303       -2.70471        2.02234
C         -7.89230       -0.86194        3.56523
O         -7.62994        0.52012        3.78609
H          1.97097       -0.30883       -0.00364
H          1.94431       -2.22781       -0.63057
H         -3.31005       -1.39509       -1.27703
H         -3.38359       -3.11161       -0.84282
H         -3.32420       -2.50116        1.59059
H         -2.18802       -0.46075        1.03179
H         -5.49659       -0.92673        0.08860
H         -5.66233       -2.99593       -0.59122
H         -5.38556       -2.01699        2.94496
H         -4.39716        0.09192        2.30787
H         -7.71162       -0.73496        1.42782
H         -7.23293       -3.09772        1.32072
H         -8.97791       -1.00539        3.58750
H         -7.48293       -1.43560        4.40437
H         -6.68782        0.65816        3.54383
