57

O          2.80461       -0.68006       -0.81497
C          3.53283       -1.63223       -0.54000
C          3.96440       -1.95368        0.87681
C          3.17278       -1.21101        1.95953
C          1.65275       -1.44562        1.99874
C          1.15728       -2.85107        1.64924
C          1.67914       -3.96500        2.55622
N          0.74805       -4.27450        3.62361
C          0.04398       -5.41158        3.88003
O         -0.67074       -5.44233        4.88352
C          0.12811       -6.61170        2.95417
C         -1.07476       -6.73811        2.01077
C         -1.11436       -5.75018        0.84086
C          0.02844       -5.91124       -0.16386
C         -0.23125       -6.91961       -1.29081
N         -0.53217       -6.23502       -2.54115
C          0.28325       -5.86668       -3.57258
O         -0.15673       -5.07766       -4.41083
C          1.68596       -6.43478       -3.70881
C          2.80947       -5.46228       -3.31589
C          2.78573       -5.15096       -1.82356
C          4.12727       -4.88461       -1.14556
C          4.84635       -3.59035       -1.51065
N          3.98666       -2.42427       -1.55395
H          3.89491       -3.02773        1.05407
H          5.02140       -1.67684        0.96744
H          3.59029       -1.49179        2.93454
H          3.34651       -0.13151        1.86107
H          1.28181       -1.16536        2.99289
H          1.17747       -0.74449        1.30059
H          0.06085       -2.83500        1.65977
H          1.44244       -3.07407        0.61567
H          1.86968       -4.85293        1.95513
H          2.62545       -3.69556        3.03327
H          0.60568       -3.56623        4.33549
H          1.08292       -6.65920        2.43095
H          0.13559       -7.49167        3.61211
H         -1.10245       -7.75872        1.61146
H         -1.99471       -6.60477        2.59405
H         -2.07541       -5.84022        0.32061
H         -1.09012       -4.73469        1.24756
H          0.22231       -4.92308       -0.59475
H          0.94000       -6.20922        0.35880
H          0.64446       -7.55784       -1.42780
H         -1.07954       -7.57154       -1.06039
H         -1.43724       -5.78129       -2.60087
H          1.78385       -7.37947       -3.16804
H          1.80731       -6.69839       -4.76819
H          3.76764       -5.91932       -3.58889
H          2.72287       -4.53162       -3.88981
H          2.09772       -4.31827       -1.64223
H          2.38648       -6.02510       -1.30816
H          3.93782       -4.88897       -0.06549
H          4.80076       -5.73128       -1.32710
H          5.64729       -3.40994       -0.78463
H          5.30893       -3.68497       -2.49801
H          3.63622       -2.13484       -2.46066
