52

C          0.88810       -0.07063       -0.06696
O          0.33047        1.21539        0.18734
C          0.69460        1.76204        1.38739
C          1.96769        1.66171        1.94329
C          2.24584        2.28200        3.16394
C          1.26228        3.02966        3.82961
C          1.54463        3.70024        5.03070
C          0.58821        4.51797        5.65538
C          0.91400        5.33273        6.89787
C          1.49485        4.49655        8.03732
C          1.82122        6.52559        6.62597
O          1.57785        7.65610        7.02824
O          2.95853        6.17095        5.96285
C          3.90968        7.21948        5.79331
C          3.49312        8.36123        4.85962
O          3.42544        9.51565        5.29377
N          3.21463        8.08148        3.52774
C          3.32915        6.75932        2.88735
C          1.99259        6.17970        2.40973
O          1.48814        6.88614        1.27916
C          2.76582        9.19687        2.67588
C          1.30306        9.58614        2.93938
O          1.17167       10.47164        4.04977
C         -0.68790        4.60911        5.08289
C         -0.99219        3.92526        3.90332
C         -0.02145        3.14960        3.25494
C         -0.28908        2.51178        2.03418
H          0.36695       -0.49399       -0.93081
H          0.73324       -0.74480        0.78280
H          1.94966        0.00028       -0.32248
H          2.76626        1.13044        1.43591
H          3.24860        2.19873        3.57776
H          2.54178        3.61492        5.45931
H         -0.02847        5.75892        7.27019
H          2.47050        4.06993        7.78160
H          1.63969        5.11502        8.93051
H          0.82307        3.67260        8.30043
H          4.16814        7.63866        6.77433
H          4.83576        6.77976        5.40648
H          4.01094        6.87944        2.03738
H          3.79375        6.04715        3.57177
H          2.14312        5.14508        2.09395
H          1.24441        6.22138        3.20443
H          0.63777        6.46848        1.05203
H          3.41838       10.05627        2.86961
H          2.90595        8.91566        1.62749
H          0.89957       10.11097        2.06862
H          0.67555        8.71087        3.13184
H          1.84741       10.21514        4.71490
H         -1.45998        5.22408        5.54320
H         -1.99156        4.02108        3.48303
H         -1.27061        2.59595        1.57284
