21

C          1.05019        0.35037       -0.16973
C          0.56571        1.07579        1.05538
O         -0.11428        2.09785        0.94408
N          0.80695        0.57890        2.30481
C          1.68243       -0.42297        2.78371
C          2.84268       -0.77604        2.08060
C          3.70806       -1.76360        2.56520
Cl         5.12422       -2.16398        1.67326
C          3.44568       -2.41575        3.76541
C          2.31840       -2.06279        4.50394
C          1.45203       -1.06248        4.02362
N          0.28014       -0.74062        4.84393
O         -0.17762       -1.63795        5.56475
O         -0.17313        0.41087        4.77454
H          0.34351        0.53287       -0.98607
H          1.07654       -0.73036       -0.01182
H          2.02964        0.72881       -0.46911
H          0.21614        1.04034        3.00124
H          3.13208       -0.25899        1.17216
H          4.11860       -3.18616        4.13528
H          2.12567       -2.56981        5.44852
