26

O          0.94397       -0.05773       -0.09016
C          2.16913       -0.05289       -0.08976
C          2.91042        1.22402       -0.08947
C          2.20691        2.43509       -0.08952
C          2.90138        3.64597       -0.08928
C          4.29608        3.65121       -0.08901
C          4.99967        2.44557       -0.08894
C          4.30407        1.22998       -0.08914
C          5.05239       -0.04071       -0.08895
O          6.28034       -0.05216       -0.08864
C          4.31859       -1.31925       -0.08910
C          2.92191       -1.32445       -0.08954
C          2.21895       -2.54027       -0.08974
C          2.91269       -3.75134       -0.08946
C          4.30008       -3.73732       -0.08898
O          4.97395       -4.92464       -0.08866
C          5.00813       -2.53670       -0.08880
O          6.37793       -2.63550       -0.08831
H          1.11800        2.43964       -0.08975
H          2.35311        4.58576       -0.08931
H          4.83629        4.59565       -0.08884
H          6.08820        2.45958       -0.08871
H          1.12988       -2.54778       -0.09011
H          2.37604       -4.69623       -0.08961
H          5.92124       -4.67638       -0.08831
H          6.74343       -1.71963       -0.08827
