43

C          0.56620       -0.07674        0.43589
C          0.47731        1.41850        0.72041
C          1.04120        2.42455       -0.33773
C          0.47067        2.14053       -1.74591
C          0.47158        3.80988        0.08351
C          2.58476        2.41852       -0.41554
C          3.27793        1.26325       -0.78723
C          4.66717        1.25793       -0.91110
C          5.40420        2.42648       -0.70299
O          6.75258        2.35918       -0.90234
C          4.78063        3.62592       -0.34172
C          5.49291        4.99835       -0.19751
C          5.17841        5.79340       -1.49188
C          4.93026        5.80334        1.00512
C          7.04827        4.99467       -0.05184
C          7.58819        4.39409        1.24295
C          3.36427        3.57769       -0.20243
H          0.25216       -0.32908       -0.57990
H         -0.09429       -0.61916        1.12186
H          1.57360       -0.46233        0.60902
H         -0.59252        1.63107        0.85683
H          0.94795        1.61110        1.69360
H         -0.62504        2.11935       -1.73094
H          0.77711        2.91934       -2.45553
H          0.81340        1.18660       -2.15860
H          0.82460        4.10209        1.07992
H          0.74669        4.59959       -0.62520
H         -0.62459        3.79311        0.12170
H          2.75146        0.34418       -1.02470
H          5.15506        0.33398       -1.20613
H          7.00965        1.43778       -1.05959
H          4.10067        5.93277       -1.63729
H          5.63120        6.79140       -1.46647
H          5.56328        5.27443       -2.37800
H          4.94642        5.20918        1.92582
H          5.51737        6.71297        1.18041
H          3.89995        6.13787        0.84600
H          7.52141        4.51327       -0.91432
H          7.41196        6.03171       -0.09382
H          7.17455        3.40480        1.45158
H          8.67731        4.29858        1.17918
H          7.36990        5.04148        2.09791
H          2.85449        4.50444        0.03727
