24

C          0.78064       -0.38436        0.20197
C          0.33920        0.41985        1.41334
C          1.24360        1.60019        1.78442
O          0.50602        2.42646        2.72634
C          0.26123        3.68001        2.24212
O         -0.38803        4.55639        2.77494
C          0.96396        3.77719        0.97104
C          1.08458        4.87909        0.13995
C          1.87246        4.72371       -1.00719
N          2.03658        5.84926       -1.93529
O          2.65091        5.63818       -2.99042
O          1.55025        6.93984       -1.60833
C          2.52306        3.50159       -1.28266
C          2.37633        2.41559       -0.41388
C          1.56833        2.56425        0.70355
H          0.60968        0.17738       -0.72218
H          0.19652       -1.30715        0.12844
H          1.83878       -0.65497        0.26088
H         -0.69197        0.76212        1.25838
H          0.29095       -0.25001        2.28222
H          2.15706        1.26126        2.28541
H          0.58933        5.81320        0.39049
H          3.14948        3.38642       -2.16662
H          2.89159        1.48089       -0.61947
