31

O          2.20728        0.52351       -0.57788
C          1.17268        0.16782       -0.01311
C          0.33405        1.23020        0.67101
C         -0.86000        1.61877       -0.18898
C         -2.04744        0.67371       -0.03900
C         -1.74821       -0.78182       -0.39623
C         -0.67205       -1.41115        0.49204
N          0.68733       -1.14256        0.01371
C          1.30106       -2.21354       -0.67039
O          0.67880       -3.20749       -1.05169
C          2.74780       -2.16961       -0.99539
C          3.14392       -2.49527       -2.29826
C          4.49415       -2.45813       -2.64582
C          5.44958       -2.11370       -1.68949
C          5.06061       -1.82686       -0.37968
C          3.71047       -1.86836       -0.02478
H          0.04935        0.92165        1.68132
H          0.97958        2.10834        0.80192
H         -1.18750        2.62443        0.10137
H         -0.56715        1.67458       -1.24484
H         -2.42209        0.72474        0.99100
H         -2.86114        1.03276       -0.68101
H         -2.67922       -1.34737       -0.26621
H         -1.47388       -0.86155       -1.45512
H         -0.76322       -1.06528        1.52727
H         -0.84437       -2.49312        0.53115
H          2.39936       -2.76493       -3.04348
H          4.79884       -2.69025       -3.66284
H          6.49996       -2.06780       -1.96608
H          5.80933       -1.55866        0.36118
H          3.41786       -1.63971        0.99535
