32

C          0.93597        0.09840        0.18210
C          0.49266       -1.24325        0.76823
C          1.14593       -1.44291        2.13816
O          1.87253       -0.60448        2.66896
C          0.78384       -2.71543        2.86089
C          1.09932       -3.90178        1.96850
C          0.38698       -3.78770        0.61015
C          0.63059       -5.05187       -0.23497
O          2.02331       -5.29985       -0.39783
C         -0.05259       -4.96019       -1.59596
C          0.32625       -3.68957       -2.34262
C          0.10262       -2.42540       -1.50936
O          0.56867       -1.32949       -2.28628
C          0.80110       -2.48005       -0.12891
H          0.85649        0.90164        0.92362
H          0.30525        0.39821       -0.65866
H          1.97836        0.06068       -0.15225
H         -0.58882       -1.18526        0.94988
H          1.35784       -2.78009        3.79107
H         -0.27952       -2.67889        3.12022
H          2.18487       -3.96184        1.81944
H          0.79259       -4.82376        2.47646
H         -0.69494       -3.73250        0.80242
H          0.22632       -5.92097        0.29703
H          2.41888       -4.60789       -0.95117
H          0.22060       -5.82558       -2.21108
H         -1.14051       -4.98454       -1.45888
H          1.37378       -3.74033       -2.66609
H         -0.25517       -3.62123       -3.27085
H         -0.97467       -2.28152       -1.36252
H          1.52669       -1.42490       -2.42423
H          1.88811       -2.49546       -0.29420
