31

C          0.92388        0.32676       -0.41063
C          0.47925       -1.09868       -0.12515
C          1.00078       -1.63519        1.20889
C          0.42995       -0.95590        2.45970
C         -1.05745       -1.21806        2.72463
C         -1.41095       -2.66747        3.06890
N         -0.96936       -2.99791        4.41650
C          0.12486       -3.60024        4.69136
O          1.00761       -4.05061        3.78203
C          0.53411       -3.94752        6.12002
C          0.13157       -2.86583        7.11059
O         -0.06918       -5.18119        6.50171
H          0.47043        1.03613        0.28715
H          0.62568        0.61739       -1.42284
H          2.01260        0.41881       -0.34032
H         -0.61266       -1.16382       -0.17094
H          0.86245       -1.74399       -0.92524
H          0.80223       -2.70974        1.23775
H          2.09290       -1.53115        1.22880
H          1.01335       -1.27669        3.33017
H          0.58479        0.12677        2.38898
H         -1.37522       -0.57116        3.55292
H         -1.64393       -0.90646        1.85322
H         -2.50467       -2.75405        3.06477
H         -1.07100       -3.37257        2.30621
H          0.69491       -3.91822        2.88065
H          1.62146       -4.07718        6.15306
H         -0.95863       -2.77462        7.17686
H          0.48433       -3.12104        8.11553
H          0.54203       -1.89131        6.82877
H         -1.02733       -5.06983        6.36421
