29

C          1.19882        0.10774        0.21998
C          0.61528       -1.03936       -0.59440
N          1.01047       -2.37889       -0.11656
N          1.79701       -2.43668        0.99890
C          2.11689       -3.57738        1.54478
C          2.98406       -3.53682        2.80766
O          3.26925       -4.49342        3.49709
O          3.40464       -2.30518        3.13050
C          1.62551       -4.87335        0.96662
O          2.01135       -5.94685        1.40210
C          0.66022       -4.79488       -0.12981
C          0.04007       -5.96616       -0.59415
C         -0.88709       -5.82660       -1.59639
C         -1.16027       -4.60137       -2.15033
C         -0.53157       -3.44634       -1.72535
C          0.38509       -3.51672       -0.65953
O         -2.11448       -4.67172       -3.11759
C         -2.50064       -6.05841       -3.01053
O         -1.63724       -6.81994       -2.14052
H          0.86646        0.06133        1.26263
H          0.86620        1.06572       -0.19300
H          2.29315        0.09476        0.20481
H         -0.47667       -0.94162       -0.55793
H          0.93485       -0.92163       -1.63687
H          3.91651       -2.43389        3.95459
H          0.25990       -6.93773       -0.16405
H         -0.78680       -2.51352       -2.21406
H         -3.52286       -6.10380       -2.61424
H         -2.48916       -6.50918       -4.00843
