69

N          2.48707       -2.08222       -0.39874
C          2.09468       -1.62746        1.06873
C          1.54164        0.17360        2.36815
O          3.52722        0.48933        2.78546
C          3.71659        0.00911        0.86262
O          1.70894        0.01512        0.59697
C          0.17581        1.18583        0.72473
C         -0.78003        0.91686        2.40895
N         -2.23340        1.11891        2.09289
C         -0.42499        2.01478        3.87028
C          0.32088        3.73002        3.60166
N          1.04618        4.05362        4.82371
C          1.31499        3.96134        1.98361
O          2.75487        2.83550        2.50945
C          2.69370        1.18004        1.48284
O          2.73688       -0.80089        2.37586
C          0.89810       -1.59272        2.52820
C          0.26634       -1.57153        4.03664
O         -1.14400       -1.74327        4.07015
C         -0.02847       -1.29393        0.72659
O         -1.46405       -1.16670        0.83559
C          0.58492       -0.23493       -0.89247
N         -0.54406        0.36119       -1.77668
C          2.13421        1.06080       -0.61364
O          2.28739        1.89933       -1.76395
C          0.41116        3.12564        0.35225
O          0.54829        3.46714       -1.02094
C          4.24069        1.72675        0.12537
O          4.65946        1.73029       -1.22674
C          2.71356        2.88373        0.58004
O          2.58698        3.84324       -0.50319
C          1.22286        2.06314        1.91910
O         -0.40317        2.84973        2.00206
H          1.66915       -2.44913       -0.89323
H          2.96194       -1.42890       -0.99073
H          1.51071       -2.58284        1.09118
H          3.01301       -2.21607        1.46203
H          1.44261        0.14982        3.46965
H          4.31952       -0.90904        0.80414
H         -0.66076        0.85539        0.17790
H         -0.72582       -0.09009        2.72236
H         -2.70764        0.28568        2.47192
H         -2.38755        0.93740        1.09542
H          0.25484        1.47420        4.53940
H         -1.36997        2.14608        4.40776
H         -0.54953        4.40282        3.50687
H          0.51287        3.66617        5.60296
H          1.92908        3.54109        4.80488
H          1.75334        4.95526        1.85138
H          3.77260        1.61813        1.73019
H          1.19065       -2.66801        2.65109
H          0.70400       -2.40208        4.60495
H          0.51620       -0.71571        4.67288
H         -1.52497       -0.94345        4.48331
H         -0.03776       -2.30440        0.28092
H         -1.78967       -1.13992       -0.08616
H          0.95833       -0.93177       -1.64324
H         -0.16220        1.22771       -2.19062
H         -1.36229        0.72837       -1.27977
H          2.85574        0.31837       -1.00947
H          3.26175        1.96663       -1.95001
H         -0.61493        3.55615        0.34451
H          0.96166        4.35870       -1.00453
H          5.09704        2.11679        0.72380
H          5.35207        1.04883       -1.31625
H          3.35803        3.65539        1.07775
H          2.28119        3.30580       -1.27720
H          1.37545        2.09929        3.02889
H         -1.29271        2.48903        1.74605
