33

O          1.28154       -0.18867       -0.03787
N          2.51839       -0.20172        0.01360
O          3.26489       -0.89864       -0.68196
C          3.12960        0.65909        1.01871
C          2.70820        0.46362        2.34698
C          3.17887        1.28590        3.38824
C          2.65620        1.01361        4.78237
F          1.41099        1.53074        4.95862
F          2.53572       -0.32507        5.01495
F          3.41782        1.48195        5.80138
C          4.03093        2.34780        3.05483
Cl         4.51528        3.48479        4.27531
C          4.44365        2.51879        1.70696
N          5.21586        3.70913        1.42173
O          4.59863        4.67077        0.94863
O          6.42461        3.67600        1.68528
C          4.04675        1.66123        0.64834
N          4.38322        1.82030       -0.72618
C          5.50877        2.45980       -1.27703
N          5.19039        3.48528       -2.09638
C          6.18768        4.30484       -2.50070
C          7.51608        4.14215       -2.14160
C          8.51984        5.17300       -2.55455
F          8.73869        5.17523       -3.89677
F          8.12448        6.43695       -2.23863
F          9.73861        5.00680       -1.97325
C          7.84587        3.01333       -1.38466
C          6.83584        2.15147       -0.95334
Cl         7.26579        0.78177        0.00362
H          1.98950       -0.32878        2.57351
H          3.60905        2.26466       -1.23233
H          5.86439        5.14190       -3.11764
H          8.87929        2.83156       -1.09446
