16

C          0.67422       -1.23503        0.25190
C         -0.78821       -1.16843       -0.23843
N         -1.47494        0.07033        0.16802
C         -0.67452        1.23438       -0.25102
C          0.78772        1.16776        0.23979
N          1.47453       -0.07083       -0.16699
H          0.69688       -1.31195        1.34605
H          1.14577       -2.14406       -0.13744
H         -1.34321       -2.02486        0.16005
H         -0.81854       -1.25417       -1.33173
H         -1.52277        0.07794        1.18782
H         -0.69684        1.31099       -1.34520
H         -1.14614        2.14356        0.13792
H          0.81770        1.25307        1.33314
H          1.34282        2.02438       -0.15817
H          1.52223       -0.07822       -1.18680
