58

C          1.17522        0.32667       -0.63061
C          1.02016       -1.18635       -0.61319
C          1.44795       -1.81848        0.71400
C          0.65996       -1.34032        1.93855
C         -0.84962       -1.59198        1.86113
C         -1.23739       -3.07294        1.78885
C         -0.82613       -3.88979        3.01917
C         -1.45424       -3.40475        4.33084
C         -2.98488       -3.48525        4.35532
C         -3.53403       -4.91115        4.23319
C         -3.11075       -5.83998        5.37674
C         -3.60342       -5.39032        6.75698
C         -5.12990       -5.37174        6.89819
C         -5.79269       -6.74192        6.71537
C         -5.33762       -7.79895        7.72746
C         -5.68092       -7.46557        9.18329
C         -7.18317       -7.36341        9.47765
C         -7.99345       -8.62272        9.15822
N         -7.55484       -9.76793        9.94722
H          0.50861        0.80860        0.09081
H          0.92778        0.72016       -1.62115
H          2.20460        0.61554       -0.39617
H         -0.01638       -1.45134       -0.84885
H          1.63475       -1.61172       -1.41516
H          1.37000       -2.90856        0.62655
H          2.51117       -1.60736        0.88203
H          1.07314       -1.82345        2.83150
H          0.82987       -0.26808        2.08805
H         -1.32816       -1.12393        2.72880
H         -1.26959       -1.07449        0.99166
H         -2.32104       -3.14528        1.64169
H         -0.79557       -3.53107        0.89705
H         -1.08628       -4.94033        2.84723
H          0.26427       -3.87915        3.12520
H         -1.03490       -3.98656        5.15906
H         -1.15173       -2.37103        4.53077
H         -3.34779       -3.02315        5.28003
H         -3.40572       -2.87426        3.54923
H         -4.62712       -4.86479        4.17457
H         -3.21586       -5.35371        3.28272
H         -3.47002       -6.85223        5.16128
H         -2.01892       -5.92694        5.40289
H         -3.16554       -6.04472        7.51861
H         -3.21584       -4.39157        6.98640
H         -5.38810       -4.96212        7.88100
H         -5.56233       -4.67231        6.17377
H         -6.88001       -6.61815        6.76821
H         -5.59540       -7.11627        5.70436
H         -5.77799       -8.76357        7.45241
H         -4.25498       -7.94874        7.64803
H         -5.23063       -8.22590        9.83181
H         -5.20317       -6.52206        9.47182
H         -7.31198       -7.11205       10.53801
H         -7.60993       -6.52157        8.91913
H         -9.04875       -8.43053        9.37748
H         -7.93221       -8.86415        8.09204
H         -8.08470      -10.59341        9.66609
H         -6.58048       -9.97846        9.74396
