21

C          0.34434       -0.69858        0.23992
C          0.53431       -0.23141        1.67236
O          1.14729        1.06313        1.65810
C          2.43680        1.03196        2.13119
C          2.69058        0.77077        3.48003
C          4.00428        0.77129        3.94637
C          5.05191        1.05951        3.07232
C          4.78899        1.35048        1.73012
C          3.48238        1.31243        1.23688
N          3.21534        1.74936       -0.07162
H         -0.21609        0.04319       -0.33848
H         -0.19069       -1.65167        0.20831
H          1.31246       -0.82521       -0.25579
H         -0.44247       -0.12520        2.15624
H          1.10331       -0.98207        2.23519
H          1.87080        0.58451        4.16651
H          4.20983        0.56978        4.99440
H          6.07470        1.08566        3.43973
H          5.61142        1.62234        1.07470
H          2.27511        1.49599       -0.36609
H          3.93337        1.51019       -0.74463
