47

C          1.42728        0.02594        0.85057
O          0.45187       -0.99849        0.79946
P          1.02854       -2.53074        0.24041
S         -0.02626       -3.43923        1.68618
O          0.10148       -2.38765       -1.11867
C          0.35467       -1.30797       -1.99391
O          1.60521       -4.06300       -0.31864
C          2.93473       -4.12482       -0.67894
C          3.25551       -4.86968       -1.80694
C          4.58339       -4.92662       -2.25914
C          5.61911       -4.25044       -1.58888
S          7.24225       -4.29615       -2.35191
C          8.42902       -3.72768       -1.15235
C          9.16226       -2.55093       -1.37301
C         10.10921       -2.09234       -0.43472
C         10.34537       -2.80883        0.73547
O         11.15846       -2.19942        1.70026
P         11.11075       -2.60631        3.38105
S          9.11114       -2.21571        3.54629
O         11.55800       -4.15951        3.07874
C         12.86561       -4.35868        2.56899
O         11.06305       -3.01320        5.06184
C         11.25610       -1.94303        5.97474
C          9.68276       -4.03708        0.89921
C          8.72882       -4.48534       -0.02711
C          5.28902       -3.54568       -0.42705
C          3.95586       -3.48960        0.03294
H          1.47671        0.42190        1.86723
H          1.12829        0.82846        0.17082
H          2.41315       -0.34342        0.55545
H         -0.29781       -0.47034       -1.73004
H          1.40009       -0.99149       -1.94168
H          0.12765       -1.61578       -3.01705
H          2.47522       -5.39600       -2.35257
H          4.79807       -5.50140       -3.15874
H          8.99172       -1.96905       -2.27523
H         10.62512       -1.15255       -0.61408
H         12.79331       -4.70913        1.53550
H         13.45171       -3.43460        2.59133
H         13.37350       -5.11808        3.16691
H         11.93650       -1.19586        5.55888
H         10.29665       -1.47829        6.21894
H         11.68334       -2.34572        6.89637
H          9.81979       -4.66362        1.77316
H          8.21359       -5.42547        0.16444
H          6.05642       -3.02453        0.14217
H          3.75637       -2.96215        0.96133
