23

C          1.07812       -0.26912        0.11563
O          0.55286        0.15665        1.37279
C          1.15621       -0.39026        2.45958
O          2.04356       -1.23242        2.42294
C          0.56695        0.15771        3.73718
C          0.87033        1.63693        3.98684
C          0.25424        2.65247        3.02166
C         -1.25176        2.73813        3.08802
O         -1.86295        3.71956        3.48954
O         -1.82404        1.59835        2.62150
C         -3.24962        1.57010        2.68913
H          0.67870        0.39482       -0.65643
H          0.75181       -1.29070       -0.09705
H          2.17008       -0.19517        0.09661
H         -0.50182       -0.06994        3.76985
H          1.01033       -0.42051        4.55874
H          0.53918        1.88083        5.00431
H          1.95893        1.77501        3.97015
H          0.63570        3.64665        3.28992
H          0.56274        2.49671        1.98448
H         -3.60550        1.86735        3.68069
H         -3.67164        2.21429        1.91309
H         -3.57332        0.54149        2.50577
