20

C          1.00628       -0.03107        0.03015
C          0.34561        0.81312       -1.01632
O         -0.61750        0.45095       -1.67602
O          0.95770        2.02810       -1.08744
C          0.33607        2.97640       -1.97120
C          0.72259        2.66166       -3.38683
C         -0.09851        2.40179       -4.42116
C          0.39444        1.99236       -5.77344
C         -1.58202        2.47867       -4.29607
O         -2.16036        3.31373       -3.61206
H          0.69712       -1.07224       -0.09930
H          0.70434        0.31448        1.02153
H          2.09306        0.01457       -0.07768
H         -0.73641        3.00810       -1.76886
H          0.73648        3.96219       -1.71003
H          1.79670        2.60131       -3.54989
H          0.03977        0.98571       -6.01899
H          0.03169        2.68515       -6.53951
H          1.48821        1.98058       -5.82487
H         -2.13662        1.75594       -4.91826
