27

C          0.70570       -0.07934       -0.06106
C          0.76803       -1.59748       -0.12747
N          1.23107       -2.23342        1.10969
C          0.26778       -2.41212        2.20965
C         -0.00411       -3.90320        2.47740
O          0.81623       -4.41443        3.52847
C          2.58313       -2.24760        1.41148
C          3.26285       -3.47190        1.48133
C          4.61730       -3.53764        1.81405
C          5.32943       -2.36778        2.05917
C          4.67912       -1.13961        1.98106
C          3.31656       -1.08457        1.67210
H          0.31936        0.27843        0.89818
H          0.05885        0.30567       -0.85641
H          1.69465        0.36119       -0.22116
H         -0.23844       -1.97362       -0.35094
H          1.39548       -1.90857       -0.97132
H          0.61738       -1.90797        3.11886
H         -0.68319       -1.94410        1.92844
H         -1.04131       -4.04090        2.79754
H          0.15502       -4.51563        1.58299
H          1.70878       -4.04853        3.39387
H          2.72794       -4.39525        1.26907
H          5.11399       -4.50228        1.87554
H          6.38511       -2.41283        2.30944
H          5.22930       -0.22069        2.16762
H          2.83211       -0.11375        1.65549
