10

N          0.91520       -0.07131        0.07687
C          0.24930       -1.19068        0.33676
N          0.74589       -2.04565        1.27044
C         -0.13022       -3.02259        1.27148
N         -1.10041       -2.75531        0.35986
N         -0.86592       -1.59225       -0.26513
H          0.72639        0.37692       -0.80873
H          1.88071       -0.04040        0.37420
H         -0.11318       -3.91113        1.88540
H         -1.91946       -3.29840        0.11283
