23

C          1.57238        0.73841       -0.50984
C          0.82222        0.64724       -1.83035
C          0.94043       -0.70700       -2.53734
C          0.57072       -1.95642       -1.73096
O         -0.82596       -2.23004       -1.65647
C         -1.57229       -1.50576       -0.68188
C         -1.53614       -2.09588        0.69383
C         -0.66934       -3.25003        1.12377
O         -0.29798       -1.89386        1.39422
H          1.27164       -0.03962        0.19474
H          1.37076        1.70171       -0.03037
H          2.65220        0.65938       -0.66910
H         -0.22766        0.91116       -1.68120
H          1.21977        1.41908       -2.50122
H          0.32849       -0.67146       -3.44676
H          1.98428       -0.81628       -2.85881
H          0.98899       -2.81237       -2.27526
H          1.04468       -1.97957       -0.74867
H         -1.30369       -0.45185       -0.65080
H         -2.61275       -1.54350       -1.02330
H         -2.44209       -1.88300        1.24890
H         -0.99015       -3.84898        1.96703
H         -0.10561       -3.79630        0.37846
