53

C          1.06140        0.14283       -0.51211
C          0.80970       -1.35664       -0.47111
C          1.25535       -1.99934        0.84477
C          0.54906       -1.45359        2.09059
C         -0.97351       -1.62737        2.07649
C         -1.43104       -3.08960        2.05918
C         -0.98387       -3.88931        3.28761
C         -1.53648       -3.34668        4.61120
C         -3.06525       -3.40150        4.71203
C         -3.63386       -4.81883        4.60342
C         -3.17913       -5.74195        5.73787
C         -3.71993       -5.35737        7.12280
C         -5.24293       -5.23644        7.23003
C         -5.93772       -6.57368        7.14400
O         -6.58962       -7.06077        8.05702
O         -5.71776       -7.14084        5.93129
C         -6.05340       -8.52228        5.69301
C         -5.37260       -9.46329        6.68287
C         -7.55634       -8.71837        5.58702
H          0.47100        0.67239        0.24164
H          0.78309        0.54648       -1.48996
H          2.11935        0.36359       -0.33886
H         -0.25155       -1.55562       -0.65657
H          1.35772       -1.82941       -1.29424
H          1.10548       -3.08338        0.77726
H          2.33572       -1.85435        0.96558
H          0.97427       -1.93940        2.97621
H          0.78152       -0.38995        2.21186
H         -1.39409       -1.11539        2.94922
H         -1.40319       -1.11113        1.21128
H         -2.52324       -3.11706        1.97233
H         -1.05909       -3.58773        1.15698
H         -1.27840       -4.93609        3.15471
H          0.10969       -3.91224        3.34354
H         -1.08578       -3.90697        5.43733
H         -1.20897       -2.31261        4.76253
H         -3.37566       -2.94597        5.65903
H         -3.51389       -2.77866        3.92992
H         -4.72670       -4.76389        4.56600
H         -3.34764       -5.26693        3.64563
H         -3.46080       -6.76998        5.49223
H         -2.08530       -5.77350        5.78739
H         -3.36524       -6.10246        7.84569
H         -3.27325       -4.40288        7.42585
H         -5.48648       -4.80915        8.21069
H         -5.67309       -4.55462        6.49090
H         -5.62570       -8.74351        4.70718
H         -5.75102       -9.33894        7.70121
H         -5.52393      -10.50825        6.39586
H         -4.29559       -9.26383        6.71757
H         -7.96717       -8.05058        4.82181
H         -7.79703       -9.74992        5.31312
H         -8.06690       -8.48049        6.52386
