56

C          0.33668        1.43362       -1.02226
C          0.90513        0.04602       -0.78217
C         -0.16162       -0.91378       -0.27913
C          0.48824       -2.30923       -0.39725
C         -0.41114       -3.40320       -1.04487
C         -1.89509       -3.27997       -0.66579
C         -2.72473       -4.40301       -1.25812
C         -2.13358       -5.68984       -0.78037
C         -2.77647       -6.39109        0.16832
C         -2.19181       -7.61162        0.74882
O         -2.70703       -8.16916        1.70572
C         -0.96972       -8.13303        0.10079
C         -0.29720       -7.40768       -0.80890
C         -0.71791       -6.01463       -1.30032
C         -0.76139       -6.13253       -2.84503
C          0.24702       -4.81935       -0.80996
Cl         0.47263       -5.04833        1.02212
C          1.68059       -4.77608       -1.48916
O          2.73971       -5.22227       -0.63690
C          2.09318       -3.39549       -2.10273
C          1.83013       -2.13837       -1.21120
C          3.04128       -1.99013       -0.23844
C          1.49502       -0.78024       -1.96288
O          0.44051       -1.02826       -2.91597
C          2.58365       -0.00422       -2.72346
O          3.78533       -0.19562       -2.53953
C          2.09149        1.00086       -3.76118
Cl         2.07241        0.21632       -5.35442
H         -0.13708        1.80319       -0.10413
H         -0.41331        1.45247       -1.81533
H          1.13929        2.13757       -1.26534
H          1.65015        0.18461        0.00813
H         -0.46264       -0.69880        0.75157
H         -1.05312       -0.80701       -0.90294
H          0.72444       -2.58289        0.63370
H         -0.41939       -3.24122       -2.13103
H         -2.31300       -2.35375       -1.07339
H         -2.01384       -3.23627        0.42193
H         -2.72854       -4.35924       -2.35367
H         -3.77074       -4.28812       -0.95220
H         -3.71923       -6.07063        0.59843
H         -0.65228       -9.11612        0.42626
H          0.60372       -7.84480       -1.23531
H          0.12973       -6.63123       -3.24612
H         -1.62187       -6.72746       -3.17724
H         -0.82431       -5.15772       -3.33756
H          1.70588       -5.48055       -2.32444
H          2.46628       -5.07332        0.28864
H          1.57117       -3.29770       -3.05922
H          3.15810       -3.43374       -2.37171
H          3.27938       -0.95361        0.01402
H          2.87805       -2.52248        0.70412
H          3.96328       -2.39210       -0.67327
H          0.81744       -1.50877       -3.67716
H          1.07655        1.34404       -3.55065
H          2.74395        1.87595       -3.78867
