28

O          1.14175        0.10603        0.25476
C          2.34972        0.02133        0.05852
N          3.14469        1.13600        0.04422
C          4.49911        1.16987       -0.16008
O          5.10530        2.23653       -0.10773
N          5.09643       -0.05738       -0.41230
C          6.52689       -0.07515       -0.68286
C          7.36253       -0.65448        0.44639
C          8.62303       -1.04687       -0.29161
O          9.39101       -2.01076        0.40395
C          8.10472       -1.49131       -1.66243
C          7.96152       -2.99937       -1.85619
O          7.40110       -3.26823       -3.14229
O          6.78768       -0.90543       -1.82803
C          4.36690       -1.23454       -0.39809
C          3.04879       -1.27106       -0.16968
Br         2.07843       -2.85748       -0.13251
H          2.68905        2.02126        0.20530
H          6.88561        0.93023       -0.93447
H          7.54210        0.06008        1.25561
H          6.89499       -1.53768        0.89843
H          9.25307       -0.15884       -0.42312
H          8.80588       -2.67774        0.80273
H          8.73378       -1.08339       -2.46214
H          8.92725       -3.50808       -1.79189
H          7.28113       -3.42921       -1.11421
H          6.71079       -2.59150       -3.28610
H          4.92096       -2.15004       -0.58647
