28

C          1.12695       -0.02702       -0.09891
C          0.57838        1.38664       -0.26662
S          1.08453        2.28369       -1.77508
C          2.83716        2.30725       -1.62056
O          3.40428        1.88906       -0.61993
C          3.48862        2.81667       -2.81302
C          3.14461        3.87800       -3.63381
C          4.03713        4.03069       -4.73445
C          5.03408        3.08223       -4.72271
S          4.91629        2.04401       -3.36894
C         -0.95231        1.38504       -0.18415
O         -1.52859        1.98616        0.72863
N         -1.73719        0.73090       -1.08573
C         -1.40304       -0.09640       -2.24203
C         -1.55027       -1.59552       -2.01798
O         -1.39364       -2.45339       -2.87347
O         -1.84893       -1.94762       -0.75314
H          1.06094       -0.62429       -1.01092
H          0.57513       -0.55937        0.68530
H          2.17467       -0.01842        0.21419
H          0.92341        1.98601        0.58568
H          2.29267        4.52446       -3.45505
H          3.94887        4.79558       -5.49683
H          5.83570        2.95540       -5.43791
H         -2.71657        0.76686       -0.82827
H         -2.09925        0.19129       -3.03557
H         -0.38322        0.08829       -2.57392
H         -1.87940       -2.92745       -0.77283
