14

C          0.84062        0.04155       -0.01739
C          0.55194       -0.00007        1.47179
O          1.02921        1.19295        2.11118
C          2.35304        1.21343        2.43287
O          3.13023        0.28293        2.25079
C          2.73790        2.49006        3.13461
Cl         2.19828        3.91411        2.22340
H          0.43215        0.95382       -0.46414
H          0.40366       -0.82566       -0.52057
H          1.91809        0.04759       -0.20970
H         -0.53040       -0.03570        1.63378
H          0.97726       -0.89487        1.94043
H          2.29933        2.50774        4.13575
H          3.82695        2.54364        3.21512
