21

N          1.03757        0.11058       -0.03917
N          0.37487        1.08571        0.73158
C         -0.38450        2.12739        0.22006
O         -0.71449        3.06849        0.93656
C         -0.77499        2.12673       -1.21026
C         -1.30421        0.97138       -1.82516
C         -1.66839        0.99165       -3.17503
C         -1.50121        2.17378       -3.86472
C         -1.00579        3.30606       -3.25897
C         -0.64189        3.32125       -1.93019
O         -0.92520        4.35871       -4.11600
C         -1.42739        3.76188       -5.32970
O         -1.79357        2.37439       -5.17732
H          1.32189        0.52094       -0.93381
H          1.91865       -0.12636        0.42521
H          0.57773        1.16863        1.72729
H         -1.43748        0.05827       -1.24802
H         -2.07195        0.11114       -3.66237
H         -0.26284        4.22415       -1.46348
H         -2.30895        4.32377       -5.65884
H         -0.65348        3.83663       -6.10237
