19

C          0.88564       -0.09586       -0.05293
O          0.39657       -0.08148       -1.39155
C          0.89642        0.93401       -2.15963
C         -0.01015        1.55170       -3.02206
C          0.40836        2.58934       -3.85880
C          1.74608        3.00094       -3.84961
C          2.14827        4.11125       -4.74619
O          1.42179        4.69720       -5.52777
O          3.44348        4.44744       -4.61194
C          2.66110        2.35756       -3.00698
C          2.23663        1.32280       -2.16631
H          0.30864       -0.84058        0.50384
H          0.73705        0.87589        0.43099
H          1.93664       -0.39657       -0.01056
H         -1.04905        1.23148       -3.03441
H         -0.31198        3.07242       -4.51590
H          3.55924        5.18725       -5.24448
H          3.70907        2.64762       -3.00214
H          2.97269        0.82128       -1.54632
