15

O          1.10215       -0.11848       -0.39619
C          2.31322       -0.07293       -0.20606
N          3.00230        1.11609       -0.12214
C          4.28249        1.10905        0.08603
C          5.07137       -0.10372        0.24265
N          6.40293       -0.01505        0.46295
C          7.01083       -1.21808        0.59121
C          6.31755       -2.42196        0.50091
N          4.97915       -2.48631        0.27865
C          4.36704       -1.29124        0.15142
N          3.00420       -1.24766       -0.07241
H          4.81878        2.06970        0.15061
H          8.08082       -1.19544        0.77095
H          6.82608       -3.37488        0.60672
H          2.48794       -2.11076       -0.13627
