33

C          1.22834       -0.28962        0.12573
C          0.53586        0.59583        0.85363
C         -0.96538        0.74046        0.80087
C         -1.54762        0.61936        2.21262
C         -1.37316        2.08958        0.17816
C         -0.95831        2.28282       -1.28959
C         -1.71495        1.38214       -2.23090
C         -2.55729        1.73673       -3.22235
C         -3.19853        0.67499       -4.08206
C         -2.87527        3.16499       -3.61864
C         -4.10307        3.75357       -2.93248
C         -3.82999        4.10483       -1.49612
O         -3.26398        5.13530       -1.14646
H          0.73812       -0.97209       -0.56134
H          2.31082       -0.33623        0.19261
H          1.07711        1.27030        1.51538
H         -1.39648       -0.07517        0.20744
H         -1.19785        1.42837        2.86396
H         -2.64216        0.66290        2.18333
H         -1.26590       -0.33309        2.67495
H         -2.46096        2.19738        0.26175
H         -0.93923        2.90874        0.76718
H         -1.10622        3.33530       -1.54626
H          0.11427        2.10034       -1.41624
H         -1.52014        0.32010       -2.08095
H         -4.28912        0.74983       -4.03465
H         -2.88397        0.79148       -5.12473
H         -2.92112       -0.33752       -3.76863
H         -2.00381        3.81023       -3.45990
H         -3.04703        3.18851       -4.70309
H         -4.39947        4.67964       -3.43810
H         -4.96242        3.07604       -2.96512
H         -4.12756        3.34458       -0.75488
