30

C          1.15472        0.10190        0.08777
C          0.55559       -1.20433        0.61179
C          0.98863       -1.42599        2.06326
C         -0.98231       -1.22220        0.51493
C         -1.55614       -1.06497       -0.90248
C         -1.10271       -2.12540       -1.92995
C         -1.54589       -3.53221       -1.49835
C         -1.63044       -1.81175       -3.35278
C         -1.13505       -0.48238       -3.91448
O         -1.21096       -2.83564       -4.25842
H          0.74436        0.96747        0.61899
H          0.95714        0.23202       -0.98056
H          2.24217        0.11048        0.21866
H          0.96597       -2.03252        0.02297
H          0.61870       -0.62842        2.71629
H          0.60662       -2.38033        2.44091
H          2.08078       -1.45048        2.14306
H         -1.36460       -2.14831        0.96029
H         -1.38800       -0.40957        1.13255
H         -2.65163       -1.08654       -0.83004
H         -1.30270       -0.06126       -1.25695
H         -0.00732       -2.13757       -1.98352
H         -2.63651       -3.59270       -1.41649
H         -1.21883       -4.29229       -2.21520
H         -1.11532       -3.80901       -0.53157
H         -2.72637       -1.81528       -3.35461
H         -0.04255       -0.41843       -3.85976
H         -1.40163       -0.39210       -4.97340
H         -1.56301        0.37281       -3.38540
H         -0.23811       -2.85669       -4.25239
