41

C          0.54524        0.49597       -0.33341
C          0.06626        1.44644        0.73368
O         -0.99234        2.06147        0.60156
C          0.89260        1.57902        2.00035
C          0.57272        0.45821        3.01185
C          1.11049       -0.92467        2.61294
C          0.31033       -2.05824        2.85335
C          0.76834       -3.34435        2.55668
C          2.04283       -3.50977        2.00875
N          2.53382       -4.85684        1.69416
O          1.78525       -5.81499        1.93120
O          3.67068       -4.95477        1.20989
C          2.85700       -2.39832        1.76144
C          2.39281       -1.11537        2.07034
C          0.98348        0.75403        4.45772
C          2.10649        1.37942        4.85052
O          3.04141        1.85360        3.95757
C          2.45186        1.52420        6.26448
C          3.61612        2.15424        6.71981
C          3.92534        2.17636        8.08557
C          3.07296        1.57184        9.01002
C          1.90195        0.96034        8.57220
C          1.60843        0.95102        7.20877
O          0.41165        0.33296        6.82075
C          0.02024        0.26806        5.49129
O         -1.06661       -0.20637        5.18910
H          0.13907        0.80073       -1.30178
H          0.20708       -0.51734       -0.10715
H          1.63551        0.52384       -0.40350
H          1.94635        1.63693        1.71308
H          0.63970        2.55616        2.43347
H         -0.52390        0.38674        2.97905
H         -0.68472       -1.94810        3.28770
H          0.12275       -4.19585        2.76363
H          3.85118       -2.51414        1.33316
H          3.05193       -0.27594        1.86677
H          3.56507        1.08332        3.67409
H          4.29909        2.62967        6.01961
H          4.83679        2.66170        8.42742
H          3.31985        1.58103       10.06892
H          1.22672        0.49205        9.28292
