23

O         -2.22298       -1.61211       -0.02400
C         -1.27925       -0.83963       -0.00400
N          0.03497       -1.21595        0.00477
C          0.98227       -0.23914        0.02096
S          2.61048       -0.53638        0.01764
S          0.21266        1.32955        0.03745
C         -1.37344        0.64535        0.00549
C         -2.55251        1.28169        0.00599
C         -2.74101        2.73658        0.02664
C         -2.26821        3.54781       -1.01856
C         -2.43621        4.93571       -0.97857
C         -3.09260        5.50504        0.10433
O         -3.27709        6.85559        0.20912
C         -3.58713        4.70164        1.12867
O         -4.23925        5.27140        2.18510
C         -3.42213        3.32319        1.09897
H          0.28112       -2.19386       -0.00515
H         -3.47544        0.70289        0.01905
H         -1.75790        3.10384       -1.87089
H         -2.05000        5.54176       -1.79144
H         -2.84247        7.27980       -0.55081
H         -4.22591        6.23035        1.99277
H         -3.81261        2.72238        1.91549
