17

C          0.62286        0.16621        0.65653
C          0.39546        1.58592        0.16415
C          1.08985        1.87170       -1.16275
O          0.45996        1.14121       -2.23267
C          1.05618        0.17143       -2.96317
C          2.28741       -0.47818       -2.40551
O          0.56241       -0.20752       -4.02074
H          0.17227       -0.56500       -0.02116
H          0.16961        0.03119        1.64347
H          1.69222       -0.05096        0.74472
H         -0.68319        1.75053        0.06048
H          0.76779        2.28696        0.91966
H          0.95833        2.93255       -1.40434
H          2.16549        1.69834       -1.09676
H          2.03572       -1.05829       -1.51622
H          2.68386       -1.17316       -3.15367
H          3.07825        0.24439       -2.20452
