20

C          1.20040       -0.07102       -0.04996
C          0.63391        1.28998        0.25717
O          0.05855        1.95210       -0.60922
C          0.83541        1.83666        1.64443
C          0.33861        0.91035        2.72236
O          1.15576        0.29566        3.41428
N         -1.02813        0.75538        2.89211
C         -2.06715        1.44544        2.13909
C         -1.47651       -0.16838        3.92107
H          0.98980       -0.32661       -1.09295
H          0.73621       -0.82490        0.58940
H          2.28279       -0.06047        0.09906
H          1.91044        1.99967        1.78614
H          0.36477        2.81890        1.74462
H         -2.57575        0.70998        1.50792
H         -2.78458        1.87990        2.84150
H         -1.67816        2.24276        1.50778
H         -0.92050       -1.10753        3.84600
H         -1.28673        0.28096        4.90042
H         -2.54529       -0.37652        3.81311
