18

O          1.02749       -0.02639        0.37738
N          2.20477       -0.12517        0.00432
O          2.82700       -1.19256       -0.09639
C          2.91351        1.10938       -0.34203
C          4.07228        1.04598       -1.12389
C          4.73791        2.22765       -1.45686
C          4.25742        3.47019       -1.01147
C          4.98523        4.73581       -1.38593
O          6.29836        4.73445       -0.84394
C          3.09788        3.51546       -0.22319
C          2.42180        2.33934        0.11182
H          4.46154        0.09519       -1.48241
H          5.63849        2.18140       -2.06875
H          5.04968        4.82893       -2.47488
H          4.46427        5.62007       -1.00477
H          6.27132        4.23533       -0.00981
H          2.71021        4.46859        0.13321
H          1.52272        2.39652        0.72227
