27

C          0.54217       -0.18880       -0.16201
C          0.30809       -0.45814        1.31518
C          0.93110        0.52393        2.34564
C          0.33730        1.93241        2.15289
O          0.43662        0.06744        3.62795
C          2.51135        0.52583        2.45541
C          3.04728       -0.90388        2.70253
C          3.22861        1.09019        1.21287
C          2.97117        1.38748        3.66226
H          0.41474        0.86525       -0.42002
H         -0.17810       -0.76114       -0.75732
H          1.53247       -0.51938       -0.47926
H         -0.78064       -0.46283        1.47178
H          0.60600       -1.48807        1.54617
H         -0.75732        1.88451        2.09883
H          0.55489        2.58041        3.00818
H          0.69236        2.42323        1.24405
H         -0.53443        0.11055        3.61391
H          2.84535       -1.56390        1.85294
H          4.13410       -0.89762        2.84855
H          2.60185       -1.35356        3.59641
H          2.83922        2.06815        0.91775
H          4.29996        1.22241        1.40977
H          3.16478        0.41921        0.35539
H          2.73148        2.44581        3.51712
H          2.51129        1.05863        4.59990
H          4.05755        1.32530        3.79982
