66

C         -0.71034       -0.25623        0.26717
C         -0.24931       -1.69709        0.11834
C          0.11583       -2.54929        1.33839
C          0.14283       -1.84651        2.68439
C         -1.25043       -1.52522        3.25159
C         -2.09744       -2.77648        3.55754
C         -1.45373       -3.79632        4.48425
C         -1.13419       -0.57671        4.44932
O         -0.54427        0.67421        4.01739
C          0.72950        0.90855        4.39649
O          1.49176        0.14573        4.96838
C          1.09047        2.28600        4.02642
C          0.44208        3.37060        4.66036
Br        -0.88898        3.03087        6.00826
C          0.82230        4.69149        4.35270
Br        -0.06671        6.16969        5.20523
C          1.87032        4.92634        3.43427
Br         2.41073        6.72780        3.03294
C          2.53710        3.83506        2.82963
Br         4.02141        4.13696        1.65303
C          2.13925        2.51712        3.11593
C          2.91335        1.38245        2.56280
O          3.90045        0.93768        3.12256
O          2.41562        1.01702        1.35440
C          3.13589       -0.03520        0.65410
C          3.06074        0.19461       -0.87699
C          3.71150        1.54205       -1.26954
C          5.21360        1.62626       -1.02178
C          3.69561       -0.95067       -1.71148
C          2.87151       -2.23398       -1.87689
C          1.61220       -2.10744       -2.74768
C          1.87900       -1.97084       -4.23560
H         -1.74815       -0.19173        0.59795
H         -0.66207        0.24273       -0.70780
H         -0.07814        0.31882        0.94670
H         -0.96847       -2.24346       -0.50185
H          0.66412       -1.64237       -0.46106
H         -0.52451       -3.43598        1.37043
H          1.12451       -2.95192        1.16588
H          0.69750       -2.46331        3.40201
H          0.74536       -0.94234        2.57359
H         -1.81115       -0.97067        2.49567
H         -3.05668       -2.46439        3.98723
H         -2.34867       -3.27896        2.61522
H         -1.23407       -3.36301        5.46326
H         -2.13444       -4.64105        4.63321
H         -0.52860       -4.20104        4.06362
H         -2.13310       -0.33059        4.82215
H         -0.57788       -1.02403        5.28017
H          4.17951       -0.09020        0.98252
H          2.65826       -0.98269        0.91636
H          2.00266        0.29172       -1.14511
H          3.52749        1.72438       -2.33577
H          3.21074        2.35751       -0.73857
H          5.75920        0.86827       -1.59176
H          5.58870        2.60523       -1.33612
H          5.45975        1.50185        0.03623
H          3.93608       -0.58044       -2.71529
H          4.65278       -1.22973       -1.25277
H          3.51658       -3.00336       -2.32076
H          2.59892       -2.61509       -0.88724
H          1.00065       -3.00578       -2.59262
H          1.00328       -1.25199       -2.44421
H          2.48680       -2.79940       -4.60879
H          0.92733       -1.97907       -4.77943
H          2.38273       -1.02779       -4.46325
