35

C          0.89263       -0.16033        0.00097
C          0.47363        0.25597        1.41043
C          1.12624        1.54337        2.03184
C          0.59357        2.79118        1.28919
O          0.11446        3.77974        1.83329
O          0.84840        2.72729       -0.05021
C          0.44161        3.87857       -0.79199
C          0.58408        1.59761        3.49231
O          1.46898        1.70456        4.50852
N         -0.68306        1.50723        3.72722
C         -1.20854        1.56152        4.96633
N         -0.61395        1.66770        6.09256
O         -2.53848        1.48457        4.97903
C          2.67726        1.52174        2.02922
C          3.39994        0.32179        2.16921
C          4.79488        0.32463        2.25459
C          5.49671        1.52514        2.22373
C          4.80543        2.72578        2.10870
C          3.41184        2.72641        2.01681
H          0.42927        0.47201       -0.76091
H          0.54718       -1.18176       -0.19411
H          1.97434       -0.14509       -0.14636
H         -0.61877        0.37546        1.39020
H          0.65511       -0.59704        2.07873
H         -0.64941        3.95909       -0.79218
H          0.90022        4.78625       -0.38730
H          0.78204        3.75254       -1.82353
H          2.39954        1.76981        4.23369
H          0.39255        1.71752        5.88245
H         -2.79141        1.55284        5.91210
H          2.89581       -0.64102        2.22144
H          5.33456       -0.61499        2.35056
H          6.58164        1.52534        2.29402
H          5.35048        3.66713        2.09547
H          2.91493        3.69443        1.95328
