20

C          1.09592        0.04243       -0.04723
O          0.49054       -1.21481       -0.33791
C          0.90944       -1.81821       -1.49067
C         -0.06498       -2.55883       -2.16339
C          0.26415       -3.24146       -3.34189
N         -0.77307       -4.00084       -4.05157
O         -1.91928       -3.98773       -3.58424
O         -0.43673       -4.60631       -5.07832
C          1.56935       -3.20924       -3.84707
C          2.54197       -2.48390       -3.14678
N          3.92538       -2.46125       -3.64190
O          4.16265       -3.04559       -4.70746
O          4.76865       -1.85836       -2.96472
C          2.21925       -1.78731       -1.97050
H          0.57890        0.46677        0.81894
H          0.97548        0.73670       -0.88583
H          2.15014       -0.06932        0.22208
H         -1.07604       -2.58669       -1.75907
H          1.82511       -3.74511       -4.76025
H          2.99358       -1.25333       -1.42633
