24

C          0.93759       -0.03478        0.05735
O          0.27612        0.97405       -0.69605
C          0.83857        2.22190       -0.66686
C         -0.02361        3.26132       -1.02194
C          0.41648        4.58526       -1.03529
O         -0.53417        5.50317       -1.38860
C         -0.09856        6.84770       -1.54631
C          1.73881        4.86342       -0.69437
C          2.62126        3.82801       -0.36372
O          3.89359        4.24317       -0.07095
C          4.88139        3.23310        0.09097
C          2.16835        2.50582       -0.34802
H          0.29281       -0.91890        0.06866
H          1.09046        0.28068        1.09515
H          1.88397       -0.32079       -0.41207
H         -1.05457        3.03668       -1.28455
H          0.23532        7.26796       -0.59206
H          0.68433        6.92350       -2.30839
H         -0.95405        7.43775       -1.88892
H          2.12080        5.87891       -0.68145
H          4.68017        2.62505        0.97877
H          4.96231        2.61025       -0.80623
H          5.84536        3.72944        0.23912
H          2.84612        1.70083       -0.09781
