12

Cl         1.05594        0.03748        0.06215
C          2.77504        0.07389        0.06513
C          3.43946        1.29625        0.06567
C          4.83771        1.32663        0.06832
Cl         5.58952        2.88540        0.06803
C          5.57710        0.13322        0.07091
Cl         7.31163        0.16995        0.07529
C          4.88889       -1.09041        0.07013
Cl         5.70601       -2.61596        0.07290
C          3.49061       -1.11928        0.06707
H          2.87167        2.22415        0.06403
H          2.96261       -2.07036        0.06631
