22

C          0.98972        0.00373        0.20714
O          0.64611       -1.35231       -0.04555
C          1.09717       -1.91941       -1.28975
C          0.50846       -1.16182       -2.49109
C          2.63057       -1.92372       -1.37235
C          0.54844       -3.37184       -1.32680
C          0.98143       -4.25576       -0.15544
O          0.46216       -3.78450        1.08004
H          0.58012        0.27429        1.18472
H          0.54724        0.67239       -0.53494
H          2.07312        0.13821        0.25028
H          0.92371       -0.15201       -2.57573
H          0.71892       -1.68090       -3.43253
H         -0.57675       -1.05061       -2.38829
H          3.07966       -2.28692       -0.44206
H          2.98475       -2.54410       -2.20238
H          3.02376       -0.91319       -1.52951
H         -0.54890       -3.32424       -1.31120
H          0.84466       -3.85754       -2.26458
H          0.60167       -5.27194       -0.30236
H          2.06994       -4.32204       -0.07603
H          0.47198       -2.80494        1.03214
