8

N          0.95368       -0.05519        0.11568
C          0.33223       -0.96075        0.89372
N         -1.01244       -0.91618        0.85543
S          1.15809       -2.04572        1.82592
H          0.45651        0.61014       -0.45597
H          1.96602       -0.03652        0.09964
H         -1.53994       -1.57183        1.41876
H         -1.52352       -0.25695        0.28902
