52

C          0.04805       -0.11311        0.18714
O          0.64314       -1.41156        0.21149
C          0.92593       -1.88765       -1.04591
C         -0.10719       -2.02694       -2.00169
C          0.19734       -2.46799       -3.29004
C         -0.45737       -1.92792       -4.56071
C         -1.86536       -2.00801       -5.13808
C         -3.05773       -2.30556       -4.47647
C         -4.24294       -2.10425       -5.18295
C         -4.27004       -1.65963       -6.49001
C         -3.12735       -1.39358       -7.19520
C         -1.91783       -1.55202       -6.51876
C         -0.60620       -1.09675       -7.14913
O         -0.74415       -0.56735       -8.45702
C          0.02371       -0.04219       -6.22652
C         -0.71911        1.28303       -6.24608
O         -1.13780        1.57715       -4.91853
C         -0.85085        0.55064       -4.07702
O         -1.22556        0.52674       -2.92236
C          0.03804       -0.46732       -4.75995
O         -5.52635       -1.46727       -6.97084
C         -6.30699       -1.80689       -5.81232
O         -5.50826       -2.25741       -4.69242
C          1.49667       -2.99679       -3.50656
C          2.53040       -2.80927       -2.58887
O          3.77011       -3.17478       -3.05172
C          4.75241       -2.14185       -2.96492
C          2.26053       -2.22472       -1.35137
O          3.32276       -2.04099       -0.50218
C          3.38267       -0.75773        0.11759
H         -1.03546       -0.20329        0.29649
H          0.30118        0.45809       -0.71327
H          0.43747        0.44414        1.04534
H         -1.10585       -1.67107       -1.76217
H          0.05632       -2.56522       -5.29439
H         -3.08697       -2.61916       -3.43935
H         -3.18227       -0.99893       -8.20360
H          0.06336       -1.96150       -7.24233
H         -0.85909       -1.32982       -9.05253
H          1.04954        0.13119       -6.57565
H         -0.06676        2.09353       -6.58273
H         -1.60892        1.28260       -6.88226
H          1.04967       -0.31512       -4.36260
H         -7.00893       -2.59894       -6.09563
H         -6.88194       -0.92254       -5.51011
H          1.77448       -3.39416       -4.48336
H          4.32460       -1.13185       -2.97747
H          5.36706       -2.29024       -2.07304
H          5.40824       -2.22647       -3.83857
H          2.91795        0.03447       -0.48158
H          2.93846       -0.80689        1.11534
H          4.43766       -0.49000        0.23927
