26

C         -1.93589        1.74749       -2.03528
C         -1.24767        0.71563       -1.18653
C          0.12404        0.84011       -0.91181
C          0.77578       -0.11952       -0.13770
Cl         2.45790        0.04406        0.18600
C          0.07753       -1.21112        0.36941
C         -1.28893       -1.33349        0.11156
C         -1.96657       -0.36270       -0.63629
N         -3.32630       -0.53887       -0.90021
C         -4.24466        0.02024       -0.18842
N         -4.30024        0.82369        0.93894
C         -5.50585        1.60892        1.18164
C         -3.12804        1.23583        1.69173
H         -2.55538        2.39892       -1.41127
H         -1.21075        2.37409       -2.56528
H         -2.56300        1.27001       -2.79519
H          0.68560        1.68036       -1.31266
H          0.58527       -1.96934        0.95833
H         -1.83962       -2.18832        0.49560
H         -5.26686       -0.17936       -0.55926
H         -5.58860        1.90554        2.23246
H         -5.49231        2.51406        0.56549
H         -6.40780        1.03702        0.93846
H         -2.51616        0.37404        1.96975
H         -2.52876        1.95259        1.12403
H         -3.40906        1.72015        2.63391
