34

C          1.10123        0.08721       -0.08392
C          0.77109       -1.19364       -0.83611
C          1.18715       -2.40235       -0.04753
C          0.33683       -3.38309        0.29009
C          0.68521       -4.55135        1.16999
C          0.03676       -4.44097        2.55396
O         -1.39686       -4.49434        2.44193
C         -2.05772       -3.30710        2.52445
O         -1.53480       -2.22539        2.77172
C         -3.55695       -3.45453        2.30922
C         -3.97851       -4.70171        1.57991
C         -4.79361       -5.63193        2.10231
C         -5.22717       -6.87293        1.37779
C         -4.74369       -8.12605        2.09046
H          0.63443        0.09925        0.90721
H          0.73901        0.95776       -0.63971
H          2.18298        0.19727        0.04838
H         -0.30565       -1.21462       -1.04365
H          1.28752       -1.19733       -1.80180
H          2.22091       -2.43882        0.28902
H         -0.69479       -3.33376       -0.05247
H          0.33980       -5.46497        0.67189
H          1.77184       -4.63533        1.28850
H          0.33549       -5.30356        3.15973
H          0.38033       -3.54698        3.08788
H         -4.03390       -3.39252        3.29329
H         -3.88604       -2.59516        1.71324
H         -3.58631       -4.82942        0.57255
H         -5.18682       -5.50058        3.10891
H         -6.32187       -6.88271        1.32540
H         -4.85753       -6.87738        0.34585
H         -5.11423       -8.16586        3.12049
H         -5.10112       -9.01942        1.56857
H         -3.64952       -8.16570        2.12010
