17

C          0.44531        0.48754       -0.08707
C          0.25749       -0.25531        1.22350
C          0.97204        0.43543        2.35627
O          0.34559        1.12025        3.16730
N          2.34842        0.36937        2.48034
C          3.43272       -0.27417        1.90569
O          4.56292        0.11606        2.21764
C          3.25739       -1.41410        0.93400
Cl         2.79642       -2.87510        1.82575
H         -0.16835        1.39442       -0.10318
H          0.13802       -0.14239       -0.92748
H          1.48233        0.79736       -0.24748
H         -0.81131       -0.29251        1.46759
H          0.57456       -1.29471        1.15263
H          2.66146        1.00257        3.20788
H          2.53233       -1.19851        0.15259
H          4.21538       -1.61121        0.44279
