45

O          1.69927        0.15594       -1.34541
C          2.74941        0.09317       -0.72438
C          3.29142       -1.24366       -0.25697
O          2.96308       -2.27229       -0.83461
C          4.21986       -1.22231        0.93199
C          3.50060       -1.26759        2.31507
C          2.83588        0.06739        2.70898
C          1.88968       -0.00337        3.90863
C          0.86185       -1.14387        3.79794
C         -0.20359       -0.99779        2.70490
C         -1.06779       -2.07514        2.43327
C         -1.99867       -2.01963        1.39065
C         -2.09600       -0.87423        0.61083
Cl        -3.21757       -0.81246       -0.69121
C         -1.29754        0.22693        0.89254
C         -0.37852        0.17268        1.94709
C          1.68044       -2.44852        3.67298
C          2.53399       -2.46383        2.40458
C          5.20196       -0.07523        0.85140
O          6.34095       -0.16253        1.29979
C          4.71435        1.22141        0.32107
C          5.41444        2.39019        0.64480
C          4.89274        3.63660        0.29484
C          3.68005        3.72106       -0.38798
C          2.99509        2.55825       -0.74000
C          3.51508        1.30561       -0.38799
H          4.82644       -2.13474        0.83106
H          4.28082       -1.44204        3.07121
H          3.61164        0.80723        2.94089
H          2.28052        0.46393        1.86110
H          1.39227        0.96400        4.04641
H          2.49324       -0.15597        4.81364
H          0.31230       -1.17489        4.74874
H         -1.02040       -2.98710        3.02400
H         -2.63323       -2.87805        1.18894
H         -1.37513        1.12861        0.29062
H          0.20201        1.06985        2.13871
H          1.03587       -3.33326        3.68847
H          2.33860       -2.54743        4.54669
H          1.86434       -2.48785        1.53901
H          3.11085       -3.39633        2.37303
H          6.34851        2.33816        1.20280
H          5.42515        4.54448        0.57145
H          3.26469        4.69422       -0.64251
H          2.04619        2.63452       -1.27038
