7

C          1.04625       -0.00620       -0.10113
N          0.56935       -0.31944       -1.43629
H          0.69170       -0.75556        0.61198
H          0.68663        0.97703        0.21531
H          2.13959       -0.00269       -0.08184
H         -0.44934       -0.29001       -1.44779
H          0.88114        0.40180       -2.08534
