56

C          1.03431       -1.71806        0.51147
C          0.23815       -2.35230        1.68773
C          1.25439       -2.46918        2.86332
C          2.53663       -3.25064        2.47351
C          2.29500       -4.44721        1.56915
O          3.19823       -5.21885        1.23291
C          0.91554       -4.75468        1.15751
C         -0.06109       -3.85503        1.37073
C         -1.43114       -4.46058        1.57929
C         -2.25079       -3.63819        2.57238
C         -2.38353       -2.27649        1.91706
C         -3.78593       -1.58724        1.98600
C         -5.01369       -2.45883        1.60849
C         -5.20896       -2.36866        0.06795
C         -4.04286       -1.47841       -0.42752
O         -3.05900       -2.47581       -0.79604
C         -4.14403       -0.72517       -1.75619
O         -5.21317       -0.28665       -2.17977
C         -2.83761       -0.61081       -2.60185
O         -1.60664       -0.98073       -1.99377
C         -3.84666       -0.52960        0.85838
C         -5.11923        0.39351        0.96147
C         -2.69714        0.45807        1.13491
C         -1.27136       -0.04153        1.35914
O         -0.62200        0.20216        0.12245
C         -1.08847       -1.44030        2.07418
F         -1.00883       -1.16546        3.42576
H          1.35183       -0.69935        0.77412
H          0.46066       -1.72587       -0.41693
H          1.96364       -2.22765        0.24852
H          1.54529       -1.47834        3.23022
H          0.77780       -2.98907        3.70561
H          3.23995       -2.59015        1.95368
H          3.03063       -3.61255        3.38043
H          0.72181       -5.78727        0.88896
H         -1.95209       -4.53852        0.61482
H         -1.35324       -5.48309        1.96590
H         -3.20583       -4.13846        2.73445
H         -1.75597       -3.57512        3.54810
H         -2.25363       -2.49935        0.88800
H         -3.92889       -1.15155        2.98316
H         -4.95425       -3.49283        1.94965
H         -5.90870       -2.04239        2.09192
H         -5.19662       -3.38769       -0.33712
H         -6.19256       -1.96070       -0.18337
H         -3.50512       -3.18929       -1.29544
H         -2.95641       -1.25272       -3.48124
H         -2.72233        0.42490       -2.92221
H         -1.72353       -1.91176       -1.69486
H         -5.03481        1.23372        0.26052
H         -6.06474       -0.09772        0.72222
H         -5.23306        0.80765        1.96910
H         -2.95771        0.97770        2.07333
H         -2.70697        1.24397        0.36745
H         -0.79756        0.68431        2.03491
H         -1.07190       -0.28139       -0.60048
