23

O         -0.01140       -2.11485       -1.32024
S         -0.00788       -1.44949       -0.03550
O         -0.01301       -2.13957        1.23612
C          1.28757       -0.25858       -0.02317
C          2.64232       -0.53536       -0.02505
C          3.50664        0.55644       -0.01383
C          2.99961        1.86825       -0.00129
C          1.61791        2.11419        0.00023
C          0.74062        1.03839       -0.01088
C         -0.72460        1.04774       -0.01180
C         -1.58810        2.13465       -0.00199
C         -2.97282        1.90636       -0.00521
C         -3.49654        0.60113       -0.01812
C         -2.64621       -0.50162       -0.02811
C         -1.28804       -0.24215       -0.02464
H          3.01275       -1.55488       -0.03479
H          4.58287        0.39583       -0.01474
H          3.69308        2.70744        0.00739
H          1.25751        3.13849        0.01004
H         -1.21467        3.15427        0.00805
H         -3.65554        2.75434        0.00241
H         -4.57473        0.45427       -0.02033
H         -3.02962       -1.51633       -0.03816
