17

N          0.97006        0.15477       -0.02046
C          0.36328        1.03498        0.82621
O         -0.75647        0.80427        1.26911
C          1.12012        2.26385        1.20529
C          0.65977        2.97235        2.32683
C          1.31864        4.12329        2.76346
C          2.44029        4.58389        2.07825
C          2.90296        3.89919        0.95360
C          2.24555        2.74383        0.51740
O          2.72087        2.10004       -0.59661
H          0.44767       -0.64873       -0.33683
H          1.84321        0.39975       -0.47496
H         -0.21507        2.62027        2.87147
H          0.95538        4.65548        3.63938
H          2.95455        5.47860        2.42130
H          3.77901        4.27857        0.43538
H          3.40136        2.65860       -1.01146
