28

Cl        -2.20619        0.36856       -0.13492
C         -0.49705        0.18336       -0.09471
C          0.06487       -1.08628       -0.17398
C          1.45478       -1.24048       -0.13739
C          2.30200       -0.12671       -0.02250
C          3.83465       -0.24481        0.03884
C          4.30428       -0.87586        1.36152
C          4.18217       -2.24555        1.64417
C          4.60567       -2.76734        2.87138
C          5.15756       -1.92733        3.83257
Cl         5.67223       -2.57206        5.34134
C          5.28897       -0.56698        3.57824
C          4.86194       -0.04480        2.35396
C          4.55000       -0.73117       -1.27394
Cl         4.09523        0.33370       -2.66931
Cl         6.34803       -0.58787       -1.10444
Cl         4.19518       -2.42019       -1.76560
C          1.70850        1.14855        0.06007
C          0.31967        1.30255        0.02151
H         -0.57137       -1.96374       -0.25979
H          1.84581       -2.25220       -0.19055
H          4.17720        0.80048        0.11681
H          3.74697       -2.94051        0.93258
H          4.49590       -3.83066        3.07009
H          5.71821        0.09360        4.32701
H          4.97177        1.02572        2.18712
H          2.32129        2.04362        0.15585
H         -0.11555        2.29643        0.08536
