29

C          0.96104        0.11685       -0.02261
C          0.76793       -0.19142       -1.49626
O          1.24189       -1.50975       -1.80523
C          2.58350       -1.66143       -1.92750
O          3.40271       -0.75505       -1.83703
C          2.95428       -3.08382       -2.27684
C          2.32893       -4.18637       -1.41468
C          0.80705       -4.37006       -1.42616
C          0.18572       -4.77562       -2.74228
O         -0.64788       -5.66726       -2.84677
O          0.60871       -3.98581       -3.75970
C          0.06665       -4.26282       -5.05875
C          0.74899       -5.46833       -5.67931
H          0.53769       -0.67951        0.59821
H          0.48437        1.06521        0.24019
H          2.02387        0.18501        0.22927
H         -0.30182       -0.18075       -1.73099
H          1.24897        0.55532       -2.13749
H          2.78390       -3.23677       -3.34495
H          4.04213       -3.15495       -2.14078
H          2.78722       -5.13748       -1.71554
H          2.63058       -4.01412       -0.37329
H          0.58142       -5.18263       -0.72201
H          0.27446       -3.49663       -1.04306
H         -1.02049       -4.38836       -5.00814
H          0.26346       -3.37880       -5.67467
H          0.51177       -6.38267       -5.12666
H          0.43062       -5.60186       -6.71683
H          1.83755       -5.35374       -5.65191
