62

C          1.08057       -0.24935       -0.63060
C          0.96004       -1.35590        0.40619
C          1.37980       -0.91255        1.81026
C          0.56258        0.24534        2.39348
C         -0.94015       -0.03014        2.51303
C         -1.29681       -1.18384        3.45718
C         -0.88511       -0.95404        4.91575
C         -1.53872        0.26873        5.56968
C         -3.06836        0.19477        5.64483
C         -3.59379       -0.96149        6.50337
C         -3.18328       -0.88115        7.97783
C         -3.70871        0.36156        8.70565
C         -5.23836        0.44324        8.77231
C         -5.89196       -0.70124        9.55523
C         -5.48026       -0.77119       11.03015
C         -5.83692        0.47826       11.84335
C         -7.33965        0.76510       11.93225
C         -8.15687       -0.32256       12.63783
C         -7.73711       -0.61073       14.08176
C         -7.85764        0.60192       14.99218
H          0.38718        0.57175       -0.42586
H          0.84580       -0.63803       -1.62628
H          2.09751        0.15461       -0.65355
H         -0.06585       -1.73986        0.41488
H          1.59821       -2.19342        0.10104
H          1.32763       -1.77715        2.48284
H          2.43514       -0.61467        1.78787
H          0.97285        0.50318        3.37654
H          0.70672        1.14113        1.77819
H         -1.43961        0.88756        2.84264
H         -1.35875       -0.24295        1.52312
H         -2.37746       -1.36062        3.40160
H         -0.83553       -2.11151        3.10215
H         -1.12100       -1.85509        5.49363
H          0.20369       -0.84906        4.98204
H         -1.12086        0.39741        6.57365
H         -1.25630        1.17768        5.02614
H         -3.44880        1.14788        6.02874
H         -3.48874        0.10626        4.63757
H         -4.68663       -0.99239        6.42174
H         -3.25113       -1.91735        6.09289
H         -3.52594       -1.78675        8.48973
H         -2.09044       -0.90299        8.06233
H         -3.28833        0.38301        9.71657
H         -3.32827        1.26731        8.22045
H         -5.52078        1.40587        9.21388
H         -5.65621        0.46207        7.76031
H         -6.98076       -0.60408        9.47793
H         -5.65607       -1.65974        9.07868
H         -5.94154       -1.65480       11.48387
H         -4.39961       -0.94089       11.10460
H         -5.41832        0.37428       12.85051
H         -5.33746        1.35471       11.41597
H         -7.48379        1.72244       12.44657
H         -7.74992        0.91460       10.92699
H         -9.21221       -0.02402       12.62773
H         -8.10470       -1.25512       12.06318
H         -8.37528       -1.41013       14.47611
H         -6.71122       -0.99336       14.11484
H         -8.87458        1.00599       14.97110
H         -7.62287        0.32373       16.02420
H         -7.16425        1.39592       14.69944
