37

C          0.94335        0.04901       -0.00370
C          0.68845       -0.68312       -1.31454
N          1.00779       -2.11313       -1.18730
C         -0.16922       -2.98799       -1.09927
C         -0.53258       -3.56366       -2.46303
C          2.35735       -2.46552       -1.31312
O          3.15245       -1.60204       -1.70138
C          2.90695       -3.84545       -0.94395
C          1.91921       -4.99914       -0.88279
N          1.09979       -5.95623       -0.83205
C          4.21634       -4.07768       -0.70197
C          5.28918       -3.06637       -0.72292
C          5.27001       -1.97659        0.15839
C          6.20686       -0.95783        0.01194
O          6.15596        0.16983        0.79024
C          7.21234       -1.02310       -0.95606
O          8.07523        0.03436       -1.02176
C          7.27281       -2.12885       -1.80415
N          8.30238       -2.26354       -2.84616
O          9.13603       -1.36308       -3.00492
O          8.28348       -3.30446       -3.52312
C          6.30493       -3.15122       -1.68703
H          0.39160       -0.41579        0.82064
H          0.62938        1.09402       -0.08169
H          2.00639        0.03151        0.25853
H         -0.36174       -0.56314       -1.60520
H          1.28496       -0.23438       -2.11567
H         -0.01378       -3.75414       -0.34314
H         -1.02041       -2.40893       -0.72018
H          0.31666       -4.06041       -2.94254
H         -1.34785       -4.28753       -2.37189
H         -0.85867       -2.76834       -3.14196
H          4.55817       -5.08886       -0.48660
H          4.48543       -1.89411        0.90485
H          5.28858        0.19469        1.23236
H          7.76805        0.67463       -0.34840
H          6.31671       -3.99786       -2.37237
