44

C          0.76109        0.45417        1.10373
C          0.06013       -0.89408        1.25692
C         -0.02170       -1.27303        2.73798
C         -1.34651       -0.91943        0.62542
C         -1.40542       -0.54223       -0.85788
O         -0.45064       -1.31401       -1.57629
C         -0.46272       -1.11679       -2.99343
C          0.57903       -0.08431       -3.46125
O          0.06452        1.23090       -3.17728
C          1.97092       -0.24174       -2.81443
O          2.88781       -1.00932       -3.58909
C          2.86773       -2.41879       -3.39602
C          3.77678       -2.88874       -2.25131
C          3.15910       -2.88732       -0.83872
C          1.87225       -3.70973       -0.77027
C          4.15737       -3.43935        0.18342
H          0.17443        1.26139        1.55313
H          0.92953        0.69897        0.05150
H          1.74276        0.43496        1.59010
H          0.67793       -1.64979        0.76246
H         -0.61004       -0.54239        3.30332
H         -0.48691       -2.25628        2.86501
H          0.97821       -1.31918        3.18315
H         -1.73778       -1.94039        0.72959
H         -2.02408       -0.26318        1.18492
H         -2.41155       -0.75045       -1.23932
H         -1.20639        0.52504       -0.98100
H         -0.23192       -2.08787       -3.44121
H         -1.46887       -0.83858       -3.32936
H          0.66391       -0.15119       -4.55090
H          0.23753        1.41389       -2.24205
H          2.42456        0.75366       -2.73825
H          1.90579       -0.60570       -1.79035
H          1.85043       -2.80553       -3.33199
H          3.28700       -2.83349       -4.32077
H          4.09197       -3.91622       -2.47665
H          4.68461       -2.27213       -2.24070
H          2.94459       -1.85762       -0.53837
H          1.53500       -3.83180        0.26411
H          1.06378       -3.22455       -1.31745
H          2.01221       -4.70610       -1.20117
H          5.13457       -2.95603        0.08767
H          3.79497       -3.25812        1.20192
H          4.29371       -4.51938        0.06369
