23

Cl        -1.89024       -1.76932       -0.20689
C         -0.64484       -0.57896       -0.08425
C          0.62197       -1.00280        0.32507
C          1.67195       -0.08502        0.47227
Cl         3.14664       -0.72966        1.10017
C          1.46130        1.26828        0.17038
O          2.33618        2.32287        0.32143
C          3.68501        2.14321        0.13572
C          4.18840        1.71194       -1.09696
C          5.56495        1.56844       -1.26909
C          6.43582        1.87622       -0.22179
C          5.93616        2.34227        0.99934
Cl         7.08183        2.71795        2.23890
C          4.55667        2.49020        1.18144
Cl         3.89975        3.07458        2.67682
C          0.18156        1.68454       -0.23210
C         -0.86862        0.77101       -0.35705
Cl        -2.41394        1.37918       -0.82990
H          0.78612       -2.05339        0.55735
H          3.51727        1.48450       -1.92100
H          5.96382        1.21814       -2.21879
H          7.50784        1.75718       -0.36396
H          0.00378        2.74074       -0.42839
