34

C          0.15939        0.86635        1.64567
O         -0.70905        0.15804        2.53493
C         -0.77475       -1.17819        2.24443
C         -0.51418       -2.04861        3.30061
C         -0.37388       -3.41989        3.06500
C         -0.49994       -3.93544        1.76542
C          0.18035       -5.19840        1.34484
C          0.96491       -5.89634        2.18699
C          2.31410       -6.23055        1.64976
O          3.12430       -6.89762        2.28137
C          2.71684       -5.48570        0.43951
C          4.02314       -5.07012        0.20257
O          5.06385       -5.40674        1.02160
C          4.28743       -4.20738       -0.86208
C          3.24810       -3.79209       -1.69813
O          3.54478       -2.91564       -2.70001
C          1.94353       -4.22022       -1.48745
C          1.69251       -5.03474       -0.38893
O          0.38850       -5.27815       -0.03699
C         -0.96190       -3.06867        0.75415
C         -1.06773       -1.69788        0.98520
O         -1.39076       -0.86282       -0.04785
H          0.62333        1.68235        2.20839
H         -0.41797        1.30946        0.82917
H          0.97049        0.24263        1.24739
H         -0.32625       -1.64958        4.29421
H         -0.05784       -4.03939        3.89959
H          0.91416       -5.88183        3.26660
H          4.73430       -6.04330        1.69365
H          5.29416       -3.83151       -1.02204
H          2.72516       -2.65199       -3.15052
H          1.12196       -3.87968       -2.10763
H         -1.11740       -3.44518       -0.25337
H         -1.62560       -1.39280       -0.82593
