47

N         -0.02224       -2.44310       -0.01509
C          0.61673       -1.22207        0.26498
C          1.97995       -1.08104       -0.00704
C          2.60309        0.17647        0.02996
C          1.87132        1.34789        0.30157
C          2.50756        2.75905        0.09630
C          1.43525        3.91160        0.13684
C          0.37790        3.94188       -0.79604
C         -0.75571        4.74301       -0.59183
C         -0.85004        5.59348        0.51083
N         -2.09207        6.16520        0.83556
C          0.23316        5.63478        1.39734
Cl         0.18480        6.64654        2.80246
C          1.36561        4.83815        1.19597
C          3.66718        3.02761        1.10090
C          3.64855        2.97610        2.49045
C          4.75611        3.46616        3.18929
C          5.87489        3.96193        2.50148
C          5.92469        3.93848        1.10737
C          4.82249        3.45946        0.41115
C          4.62984        3.27234       -1.00456
C          5.55412        3.34494       -2.04069
C          5.16471        2.93516       -3.31635
C          3.86694        2.45837       -3.55062
C          2.93129        2.40136       -2.51342
C          3.31202        2.82158       -1.24277
C          0.51687        1.18176        0.65473
C         -0.10863       -0.06683        0.58149
Cl        -1.81488       -0.14518        0.86737
H         -0.94689       -2.50741        0.40703
H          0.54847       -3.26506        0.14658
H          2.56795       -1.94819       -0.29785
H          3.66149        0.23412       -0.22249
H          0.36027        3.25301       -1.63701
H         -1.59526        4.64398       -1.27578
H         -2.01512        6.92403        1.50963
H         -2.68384        6.38551        0.04326
H          2.16145        4.92581        1.92735
H          2.77144        2.62812        3.02877
H          4.74185        3.48971        4.27593
H          6.71558        4.36551        3.06310
H          6.80319        4.30349        0.58563
H          6.57493        3.66624       -1.86128
H          5.88441        2.95521       -4.13263
H          3.59439        2.10823       -4.54295
H          1.94673        1.98451       -2.70162
H         -0.10166        2.03106        0.93283
