51

C          0.61030       -1.65509        0.69591
C          0.55569       -2.24941        2.09384
C          1.09819       -1.33274        3.19896
C          0.50124        0.07636        3.28527
C         -1.02170        0.12203        3.40982
C         -1.59505        0.49444        4.78252
C         -1.21271        1.84678        5.39563
C         -1.48577        3.12165        4.59377
O         -2.85713        3.37741        4.31968
C         -3.37052        2.88920        3.08711
C         -3.32175        3.88500        1.92571
C         -1.95588        4.38447        1.44006
C         -0.90936        3.35222        1.00310
C         -1.29783        2.41415       -0.13972
C         -0.61793        2.71604       -1.47986
C          0.91589        2.77309       -1.48221
C          1.59526        1.54230       -0.90425
H         -0.04875       -0.78777        0.60362
H          0.27979       -2.39563       -0.04034
H          1.62867       -1.35187        0.43533
H         -0.47397       -2.54862        2.31605
H          1.14372       -3.17519        2.09957
H          0.96108       -1.83505        4.16363
H          2.18140       -1.22803        3.05580
H          0.97967        0.61214        4.11111
H          0.78900        0.62276        2.37857
H         -1.37595        0.82288        2.65775
H         -1.46900       -0.83491        3.12507
H         -2.68926        0.44326        4.71979
H         -1.30206       -0.28850        5.49394
H         -1.75647        1.92865        6.34612
H         -0.14796        1.83085        5.65634
H         -1.15200        3.96316        5.21286
H         -0.86873        3.16204        3.70366
H         -2.93661        1.93749        2.80314
H         -4.42934        2.67641        3.27802
H         -3.86162        3.44578        1.07863
H         -3.89573        4.77237        2.22391
H         -2.13078        5.06501        0.59671
H         -1.51485        5.00205        2.23250
H          0.00503        3.90413        0.76605
H         -0.63631        2.72178        1.84589
H         -1.03434        1.38973        0.15112
H         -2.38211        2.40372       -0.28874
H         -0.93291        1.94516       -2.19494
H         -1.00031        3.66881       -1.86418
H          1.25081        2.89854       -2.51902
H          1.26658        3.66106       -0.94591
H          1.27459        0.63408       -1.42311
H          2.68187        1.62719       -1.01270
H          1.38228        1.43116        0.16224
