17

C          0.87505        0.03624       -0.03771
N          0.49854       -1.06500        0.80752
C          0.81081       -2.38165        0.56568
N          0.35806       -3.18066        1.51265
C         -0.27871       -2.34698        2.40668
C         -0.97500       -2.65543        3.66570
O         -1.06757       -3.79584        4.10505
N         -1.52449       -1.55042        4.32908
C         -1.38743       -0.36591        3.81970
N         -0.73985       -0.02667        2.65233
C         -0.19779       -1.04705        1.97148
H          0.47821        0.97047        0.36522
H          0.46712       -0.13724       -1.03676
H          1.96645        0.08456       -0.07520
H          1.36731       -2.69900       -0.30748
H         -1.81826        0.50812        4.33648
H         -0.71109        0.94436        2.36322
