17

O          1.08960        0.12014       -0.14348
C          2.29644        0.10003        0.02240
O          3.12150        1.10318       -0.33507
C          3.00270       -1.06751        0.59552
C          2.56526       -2.34977        0.24525
C          3.21227       -3.47948        0.75877
C          4.29211       -3.34239        1.63895
Cl         5.08164       -4.79041        2.14462
C          4.69195       -2.05648        2.01449
N          5.79060       -1.84498        2.94112
O          6.62099       -0.98193        2.62242
O          5.78851       -2.48033        4.00106
C          4.05672       -0.91193        1.49950
H          4.07645        0.90411       -0.32098
H          1.72225       -2.47281       -0.43515
H          2.86828       -4.46854        0.45879
H          4.36638        0.08074        1.82268
