31

N          2.35460       -0.71785        1.21743
C          0.96989       -0.66694        1.02084
C          0.41232       -1.19004       -0.14860
C         -0.94424       -1.01946       -0.42844
C         -1.74579       -0.28434        0.44968
S         -3.44481       -0.02280        0.02654
O         -3.59493       -0.18714       -1.40266
O         -4.22177       -0.82253        0.94950
N         -3.79492        1.54894        0.38819
C         -3.22812        2.77882        0.04456
O         -3.77108        3.80883        0.41887
C         -1.91010        2.84621       -0.61297
C         -0.91972        3.59537        0.03992
C          0.36640        3.66986       -0.49074
C          0.66119        3.01054       -1.68214
C         -0.33435        2.30084       -2.35656
C         -1.62735        2.22850       -1.83165
C         -1.19983        0.27574        1.60450
C          0.16405        0.10506        1.86648
H          2.80235       -1.51418        0.77335
H          2.63844       -0.61193        2.18621
H          1.03271       -1.73292       -0.85735
H         -1.35965       -1.44534       -1.33945
H         -4.62342        1.62318        0.97437
H         -1.14668        4.11196        0.97071
H          1.13725        4.23614        0.02596
H          1.66809        3.05686       -2.09042
H         -0.10008        1.80213       -3.29414
H         -2.39489        1.69811       -2.38767
H         -1.80878        0.85996        2.28854
H          0.59878        0.58432        2.74023
