21

C          0.41029       -0.17750       -0.59324
C          0.61406       -1.62975       -0.19600
O          1.11963       -1.68257        1.14679
C          2.42348       -2.09705        1.18556
C          2.70868       -3.46061        1.07729
C          4.03256       -3.90117        1.13762
C          5.06965       -2.98304        1.30974
C          4.78417       -1.62315        1.44197
C          3.45732       -1.18176        1.40087
C          3.16395        0.25124        1.59850
O          4.04506        1.10128        1.58974
H         -0.14303        0.36444        0.18092
H         -0.13253       -0.10202       -1.53919
H          1.37414        0.32812       -0.71107
H         -0.35200       -2.14565       -0.19736
H          1.26039       -2.13549       -0.92510
H          1.90438       -4.18113        0.95507
H          4.25703       -4.96229        1.05614
H          6.10061       -3.32632        1.35558
H          5.59366       -0.91170        1.59263
H          2.10819        0.52884        1.75460
