35

C          0.39383        0.22438       -0.12870
C          0.39226       -1.19107       -0.69722
C          0.91836       -2.37128        0.18820
C          0.24992       -2.33130        1.57962
C          0.40820       -3.66328       -0.51391
C          2.50364       -2.43114        0.28099
C          3.15054       -1.16714        0.88564
C          4.66836       -1.25157        1.07537
C          5.14449       -2.51513        1.78844
N          4.94860       -2.42823        3.28178
O          3.76901       -2.30481        3.62546
C          4.54018       -3.76069        1.13754
N          5.06954       -5.02110        1.77552
O          4.20467       -5.69889        2.34060
C          3.01199       -3.70771        1.00693
H          0.13790        0.26102        0.93187
H         -0.34859        0.82962       -0.66182
H          1.34986        0.72742       -0.28076
H         -0.65732       -1.40218       -0.94759
H          0.92562       -1.18751       -1.65645
H         -0.83576       -2.20995        1.48593
H          0.41522       -3.25887        2.13734
H          0.61861       -1.51019        2.19923
H          0.89300       -3.80002       -1.48690
H          0.58593       -4.56032        0.08736
H         -0.67429       -3.62256       -0.68516
H          2.87524       -2.49870       -0.75269
H          2.98581       -0.32122        0.21711
H          2.68316       -0.91076        1.84019
H          5.01688       -0.35306        1.60018
H          5.13314       -1.22425        0.08043
H          6.23826       -2.56026        1.69465
H          4.94086       -3.82203        0.11529
H          2.54708       -3.78962        1.99440
H          2.69801       -4.59478        0.44412
