36

C          1.32005        0.40411       -0.29267
C          0.39199        0.34586       -1.50244
C          0.77177       -0.75890       -2.48668
O         -0.99830        0.37286       -1.13825
C         -1.61272       -0.80166       -0.81828
C         -2.74680       -1.13862       -1.55936
C         -3.49478       -2.26944       -1.22600
C         -3.10717       -3.05749       -0.13739
S         -4.14141       -4.44050        0.29064
O         -5.41923       -3.88611        0.70278
O         -4.05745       -5.36355       -0.82525
C         -3.47688       -5.27296        1.71723
C         -2.88172       -6.52990        1.57752
C         -2.35136       -7.16282        2.70172
C         -2.42218       -6.54027        3.94496
O         -1.87233       -7.19168        5.00856
C         -3.03492       -5.29809        4.09362
C         -3.57902       -4.66425        2.97515
C         -1.97219       -2.72653        0.60564
C         -1.23963       -1.58283        0.27324
H          1.47899       -0.58511        0.14602
H          0.91065        1.05535        0.48632
H          2.30591        0.78195       -0.58319
H          0.53556        1.29387       -2.03670
H          0.69526       -1.75249       -2.03381
H          0.10599       -0.74503       -3.35596
H          1.80124       -0.62842       -2.83618
H         -3.05682       -0.50970       -2.39035
H         -4.38350       -2.52021       -1.80198
H         -2.82852       -7.02333        0.60950
H         -1.88572       -8.14085        2.61021
H         -2.00726       -6.65921        5.80968
H         -3.10006       -4.81555        5.06423
H         -4.07036       -3.69949        3.08685
H         -1.64651       -3.31359        1.45789
H         -0.40710       -1.29805        0.90562
