26

C          1.02264       -0.07721        0.08092
C          0.41674       -0.60460        1.37872
C          1.05960       -0.00984        2.62576
O         -1.02270       -0.48428        1.41783
C         -1.59276        0.73863        1.30618
O         -1.02560        1.80880        1.16389
C         -3.06713        0.60196        1.31297
C         -3.71608       -0.37782        2.07036
C         -5.11330       -0.45149        2.06096
C         -5.87460        0.46693        1.33096
N         -7.26071        0.30710        1.22621
C         -5.21367        1.40050        0.52803
C         -3.81912        1.49155        0.54001
H          0.96476        1.01274        0.00959
H          0.49108       -0.48524       -0.78498
H          2.07918       -0.35406        0.00617
H          0.60392       -1.68503        1.40031
H          0.91797        1.07346        2.68165
H          0.60548       -0.43688        3.52637
H          2.13462       -0.21442        2.64716
H         -3.14772       -1.08564        2.66798
H         -5.60456       -1.23367        2.63430
H         -7.75103        1.15193        0.94831
H         -7.68611       -0.13179        2.03695
H         -5.78011        2.07212       -0.11193
H         -3.32235        2.24368       -0.06916
