12

N          1.13146       -0.09446        0.28959
C          2.28607       -0.01195        0.19088
C          3.72711        0.02617        0.06204
N          4.31535       -1.12507       -0.06831
C          4.46404        1.34261        0.02904
N          4.18396        2.03768       -1.24529
C          4.09684        2.16687        1.25221
N          3.79221        2.85067        2.26694
H          3.63776       -1.90126       -0.03410
H          5.54036        1.13703        0.07555
H          4.67313        2.93472       -1.25028
H          4.59343        1.49817       -2.01090
