30

O          1.32768        0.06826        0.03774
C          0.71248       -0.82772       -0.89243
C          1.02527       -0.31945       -2.30264
O          2.43913       -0.06141       -2.36823
C          0.61073       -1.31601       -3.40796
O         -0.80545       -1.52940       -3.39230
C          1.05817       -0.81101       -4.81250
O          2.48806       -0.70983       -4.88499
C          0.55259       -1.73124       -5.96017
O         -0.88241       -1.77340       -6.00077
C          1.09333       -1.28362       -7.34706
O          2.52141       -1.35084       -7.40469
C          0.53347       -2.14468       -8.49173
O         -0.87791       -2.02464       -8.63683
H          1.70726       -0.47199        0.75450
H          1.13577       -1.82507       -0.73334
H         -0.36418       -0.85766       -0.69988
H          0.52019        0.64229       -2.45245
H          2.62740        0.45163       -1.55161
H          1.10576       -2.27870       -3.22618
H         -1.02676       -2.05953       -2.60233
H          0.63829        0.19046       -4.97036
H          2.79133       -0.33493       -4.02535
H          0.91455       -2.74919       -5.76710
H         -1.19381       -1.75526       -5.06939
H          0.78878       -0.24421       -7.52212
H          2.85157       -0.98056       -6.55646
H          0.99565       -1.85340       -9.44123
H          0.78148       -3.20043       -8.33441
H         -1.24595       -2.03859       -7.72660
