31

C          0.91173        0.06156       -0.15525
C          0.40941       -0.73426        1.05306
C          0.83481       -0.19824        2.46035
C          0.50955        1.31633        2.62875
C         -0.89875        1.79828        2.31099
C          0.21114       -1.07731        3.58094
O          0.91270       -1.62763        4.43932
N         -1.12568       -1.26031        3.77127
C         -2.19907       -1.35375        2.81001
C          2.39428       -0.36477        2.53774
O          3.02405       -1.01306        1.69231
N          3.16179        0.20968        3.50888
C          2.81988        0.65770        4.84092
H          0.48700        1.06850       -0.18166
H          0.60458       -0.44325       -1.07765
H          1.99958        0.15394       -0.18091
H         -0.67391       -0.76774        0.95067
H          0.73800       -1.77707        0.94639
H          0.70177        1.63875        3.65488
H          1.20608        1.89725        2.00885
H         -1.60861        1.46710        3.07299
H         -0.92007        2.89392        2.32001
H         -1.24685        1.47760        1.32714
H         -1.25009       -1.86121        4.57957
H         -2.00677       -2.19968        2.14506
H         -3.12814       -1.53087        3.35873
H         -2.30441       -0.43855        2.23355
H          4.13832       -0.02190        3.36843
H          3.36790        0.03312        5.55194
H          3.15757        1.69129        4.94719
H          1.75866        0.58750        5.06516
