59

C          1.03056       -0.28415        0.49088
C          0.82239        1.21521        0.63813
C          1.26615        1.99924       -0.59933
C          0.52427        1.62194       -1.88588
C         -0.99331        1.81741       -1.80785
C         -1.41235        3.27561       -1.59487
C         -0.98551        4.20351       -2.73701
C         -1.58439        3.80954       -4.09151
C         -3.11492        3.88159       -4.11559
C         -3.65146        5.29573       -3.87208
C         -3.18236        6.30207       -4.92793
C         -3.66662        5.95750       -6.34088
C         -5.19305        5.96992       -6.47634
C         -5.81558        7.32840       -6.14346
C         -5.37648        8.43934       -7.10191
C         -5.89800        8.26601       -8.53474
C         -7.42178        8.21470       -8.65780
C         -8.03409        9.55505       -8.34090
O         -8.38928       10.36387       -9.18790
O         -8.05871        9.76093       -6.99675
C         -8.27818       11.11562       -6.60368
H          0.41366       -0.70121       -0.31092
H          0.75538       -0.79717        1.41678
H          2.07880       -0.50979        0.27151
H         -0.22977        1.41861        0.86642
H          1.39568        1.57017        1.50197
H          1.14577        3.07091       -0.40098
H          2.34006        1.84416       -0.75731
H          0.93797        2.20715       -2.71515
H          0.73386        0.57818       -2.14373
H         -1.44717        1.42471       -2.72456
H         -1.41399        1.20523       -1.00330
H         -2.49967        3.31572       -1.46435
H         -0.99952        3.65535       -0.65419
H         -1.26491        5.23176       -2.48211
H          0.10609        4.22266       -2.82225
H         -1.15933        4.45328       -4.86894
H         -1.27048        2.79820       -4.36974
H         -3.47430        3.49947       -5.07716
H         -3.54193        3.20424       -3.36842
H         -4.74566        5.26108       -3.83597
H         -3.34986        5.65170       -2.88107
H         -3.51703        7.30400       -4.63982
H         -2.08945        6.37012       -4.93301
H         -3.21609        6.65806       -7.05150
H         -3.29176        4.97387       -6.64362
H         -5.46408        5.66750       -7.49344
H         -5.63443        5.20802       -5.82400
H         -6.90536        7.22941       -6.13601
H         -5.56054        7.62225       -5.11946
H         -5.69482        9.40496       -6.69748
H         -4.28363        8.50755       -7.13223
H         -5.51398        9.09688       -9.13928
H         -5.47522        7.35315       -8.96972
H         -7.69333        7.96287       -9.68967
H         -7.87864        7.43934       -8.03539
H         -7.76396       11.81775       -7.26884
H         -9.34981       11.32230       -6.57105
H         -7.85950       11.24380       -5.60082
