32

O          0.90215       -0.31659        0.04007
C          2.11963       -0.12765       -0.03733
N          2.88489       -0.71763        0.93279
C          4.34046       -0.64474        1.18406
C          4.56235       -0.26692        2.65686
O          3.94439       -1.23521        3.50165
C          5.01901       -1.99375        0.80741
O          4.64928       -2.32121       -0.53964
C          6.53693       -2.04441        0.85451
C          7.16859       -3.29357        1.01492
C          8.56222       -3.39909        1.08167
C          9.34301       -2.24351        0.98350
N         10.80395       -2.33518        1.08909
O         11.30794       -3.46158        1.18253
O         11.44754       -1.27377        1.08805
C          8.73979       -0.99729        0.78904
C          7.34656       -0.90576        0.71038
C          2.76903        0.73389       -1.12490
Cl         2.07293        0.32677       -2.70604
Cl         2.49003        2.44158       -0.72240
H          2.34136       -1.26974        1.59056
H          4.74116        0.15686        0.56190
H          5.62435       -0.21220        2.91083
H          4.11856        0.71364        2.86618
H          3.23197       -0.78326        3.98991
H          4.62282       -2.78766        1.45537
H          3.72084       -2.61554       -0.49912
H          6.57061       -4.20200        1.08519
H          9.01581       -4.37975        1.21064
H          9.33509       -0.09103        0.69376
H          6.91745        0.07656        0.53528
H          3.84288        0.57405       -1.20398
