58

C          1.03341        0.06966        0.08313
C          0.50282       -1.29535        0.53388
C          1.05893       -1.62075        1.92420
C         -1.02854       -1.27297        0.53223
O          0.98167       -2.23938       -0.43609
O          0.52838       -3.56307       -0.01343
C          1.07555       -4.53626       -0.92659
C          0.50334       -4.27269       -2.32994
C          2.61228       -4.43016       -0.91844
C          0.65559       -5.93694       -0.44853
C         -0.14826       -6.13246        0.68326
C         -0.48921       -7.41853        1.10568
C         -0.03327       -8.53709        0.40689
C          0.76730       -8.39257       -0.73614
C          1.30230       -9.61577       -1.50217
C          2.27851      -10.38926       -0.60198
C          0.14239      -10.50642       -1.97197
O          2.00021       -9.11789       -2.66079
O          2.59282      -10.23695       -3.38283
C          3.32446       -9.67044       -4.48469
C          2.37841       -8.89647       -5.41081
C          4.45398       -8.77093       -3.96852
C          3.92616      -10.85376       -5.24788
C          1.09180       -7.08239       -1.14330
H          0.71449        0.87179        0.75666
H          0.68705        0.30793       -0.92926
H          2.12895        0.06711        0.04156
H          0.78807       -0.85063        2.65397
H          0.68051       -2.58000        2.29422
H          2.15107       -1.70690        1.89532
H         -1.41283       -1.11167       -0.48142
H         -1.44289       -2.22813        0.87331
H         -1.41923       -0.48488        1.18407
H          0.78278       -3.27866       -2.69650
H          0.85199       -5.00192       -3.06865
H         -0.59272       -4.30141       -2.31325
H          3.00457       -4.58338        0.09399
H          3.08730       -5.16057       -1.58165
H          2.95182       -3.43918       -1.23858
H         -0.51610       -5.28540        1.25804
H         -1.10797       -7.54777        1.99046
H         -0.30660       -9.52364        0.77350
H          1.79843      -10.75083        0.31377
H          2.69802      -11.26007       -1.11741
H          3.12723       -9.75685       -0.31526
H         -0.52770       -9.95100       -2.63888
H          0.50695      -11.36711       -2.54377
H         -0.45070      -10.89583       -1.13827
H          1.95744       -8.01674       -4.91097
H          2.89349       -8.55159       -6.31341
H          1.52909       -9.52156       -5.70851
H          5.08529       -9.31082       -3.25389
H          5.08389       -8.40862       -4.78779
H          4.06109       -7.89648       -3.43773
H          4.58328      -11.44303       -4.59809
H          3.13987      -11.53454       -5.59361
H          4.50469      -10.52280       -6.11678
H          1.71352       -6.94293       -2.02605
