23

C          2.56036        0.08277        0.03060
C          1.06168        0.03636        0.05506
C          0.40357       -1.18247        0.24790
C         -0.99136       -1.24175        0.25276
C         -1.75581       -0.08728        0.04131
C         -3.26522       -0.15917        0.01839
C         -3.85098       -0.64079       -1.31844
N         -3.63773       -2.06873       -1.56443
C         -1.09528        1.13205       -0.15275
C          0.30126        1.19386       -0.14404
H          2.97194       -0.43948        0.90053
H          2.93416       -0.39115       -0.88261
H          2.93023        1.11287        0.05854
H          0.97416       -2.09627        0.39858
H         -1.48201       -2.19847        0.41966
H         -3.61299       -0.79569        0.84211
H         -3.66960        0.83953        0.23053
H         -4.93215       -0.46389       -1.30731
H         -3.43375       -0.06459       -2.15211
H         -4.07457       -2.32456       -2.44898
H         -2.63838       -2.23049       -1.69528
H         -1.66227        2.04748       -0.30749
H          0.79006        2.15365       -0.29340
