15

C         -2.61475       -0.38843       -0.00507
C         -2.33204        0.97046        0.00057
C         -1.00986        1.42083        0.00475
C          0.03307        0.47392        0.00313
S          1.72702        0.79356        0.00676
C          2.11591       -0.86642        0.00204
C          0.99190       -1.65867       -0.00195
C         -0.22639       -0.89947       -0.00200
C         -1.57666       -1.32520       -0.00622
H         -3.64747       -0.72852       -0.00859
H         -3.14485        1.69296        0.00167
H         -0.79068        2.48467        0.00907
H          3.14949       -1.18383        0.00252
H          1.03255       -2.74080       -0.00500
H         -1.81047       -2.38681       -0.01051
