35

C          0.94000       -1.29307        0.01227
C          0.03452       -0.08841       -0.08833
C          0.80769        1.21281       -0.11872
C         -1.21693       -0.25282       -0.93144
C         -1.73107        0.81148       -1.81041
C         -2.37939        0.67433       -2.97870
Cl        -2.92202        2.07407       -3.83780
Cl        -2.71826       -0.86250       -3.68846
C         -1.34127       -0.06217        0.56899
C         -2.02635       -1.14698        1.31131
O         -3.24650       -1.18059        1.37266
O         -1.17402       -2.02134        1.89526
C         -1.78980       -3.04853        2.68185
C         -1.17231       -3.04525        4.04798
C         -1.01068       -1.85884        4.77090
F         -1.40389       -0.69096        4.24165
C         -0.44479       -1.86527        6.04466
F         -0.28432       -0.71387        6.71010
C         -0.04532       -3.05482        6.63772
C         -0.22733       -4.24101        5.93891
F          0.13988       -5.39749        6.50624
C         -0.78772       -4.23896        4.66131
F         -0.95998       -5.40296        4.01833
H          0.39816       -2.24060       -0.06118
H          1.67269       -1.27778       -0.80232
H          1.48724       -1.28107        0.96088
H          1.29433        1.34126       -1.09132
H          0.17178        2.08522        0.06339
H          1.58473        1.21514        0.65347
H         -1.40672       -1.26131       -1.29618
H         -1.58781        1.83140       -1.45751
H         -1.67104        0.91019        0.92694
H         -2.87623       -2.94473        2.78184
H         -1.59337       -3.99575        2.16737
H          0.39300       -3.05728        7.62858
