21

C         -2.49788       -0.63609        0.14760
C         -2.44047        0.75786        0.18272
C         -1.21766        1.41484        0.03497
C         -0.04338        0.67503       -0.13182
C         -0.10559       -0.72826       -0.15873
C         -1.33264       -1.38223       -0.02896
C          1.18998       -1.46461       -0.35991
C          2.31107       -0.77395        0.43295
N          2.40869        0.68688        0.31720
C          1.29190        1.33032       -0.37998
H         -3.45370       -1.14186        0.25689
H         -3.35191        1.33425        0.31856
H         -1.18764        2.50102        0.04865
H         -1.38751       -2.46688       -0.05844
H          1.42994       -1.47483       -1.43000
H          1.10086       -2.50473       -0.02626
H          3.27317       -1.22359        0.16067
H          2.16699       -0.99500        1.49849
H          3.28091        0.94732       -0.13784
H          1.26032        2.38003       -0.06750
H          1.47947        1.32194       -1.46113
