18

C          0.98129        0.00662        0.09773
C          0.65291       -0.37507       -1.33426
S          1.10700       -2.08860       -1.70979
S          3.19639       -1.99514       -1.80055
O          3.51683       -1.02916       -2.83450
O          3.67598       -1.80556       -0.44624
C          3.76639       -3.58571       -2.36284
C          3.38390       -4.72064       -1.43419
H          0.58359       -0.71899        0.81505
H          0.53970        0.98085        0.33232
H          2.05964        0.09897        0.25415
H         -0.42720       -0.28397       -1.48875
H          1.14122        0.30627       -2.03752
H          3.36317       -3.74786       -3.36690
H          4.85640       -3.51504       -2.43931
H          2.29865       -4.84751       -1.38179
H          3.81242       -5.66209       -1.79122
H          3.74949       -4.54482       -0.41764
