15

O          1.50409       -0.07910        0.50165
C          2.65273       -0.06193        0.10570
N          3.46967       -1.17534       -0.18051
C          4.69205       -0.73761       -0.60453
N          5.80395       -1.40457       -0.99757
C          6.89047       -0.67123       -1.38653
N          6.97233        0.62116       -1.41005
C          5.86970        1.36649       -1.00828
O          5.84593        2.59260       -0.98531
C          4.67120        0.60122       -0.59246
N          3.45411        1.05315       -0.16775
H          3.15499       -2.12613       -0.07519
H          5.79830       -2.41491       -1.01151
H          7.74645       -1.29182       -1.70010
H          3.18144        2.02029       -0.07212
