12

C          0.86871       -0.03707        0.07048
C          0.15431        1.05511       -0.23186
C         -1.32272        1.13017       -0.25264
O         -1.91481        2.16042       -0.53783
O         -1.89083       -0.05508        0.07547
C         -3.31816       -0.03234        0.06917
H          0.40103       -0.98131        0.33187
H          1.95343       -0.00453        0.06147
H          0.65000        1.98517       -0.48932
H         -3.69402        0.68537        0.80520
H         -3.69402        0.20470       -0.93116
H         -3.67420       -1.02881        0.34502
