16

C          0.90601        0.13126        0.39760
O          0.29396       -1.14036        0.54208
C          0.91445       -2.18819       -0.19757
C          0.41104       -2.33390       -1.64310
C          0.90078       -1.24300       -2.58618
O          0.84978       -3.59249       -2.16917
H          0.68904        0.71571        1.29627
H          0.47205        0.66206       -0.45170
H          1.99203        0.05861        0.28730
H          2.00834       -2.10980       -0.15924
H          0.67658       -3.11776        0.33428
H         -0.68420       -2.34013       -1.65083
H          1.98627       -1.11650       -2.51005
H          0.68799       -1.51246       -3.62671
H          0.41979       -0.28393       -2.38556
H          1.81965       -3.57307       -2.22960
