38

C          1.08410       -0.18050        0.03451
C          0.39353       -1.17804        0.63422
C         -1.12167       -1.17384        0.71986
C         -1.96109       -2.11962       -0.21813
C         -2.11021       -3.50938        0.44905
C         -3.40923       -1.55816       -0.29001
C         -1.39998       -2.16358       -1.65205
C         -1.00701       -3.35884       -2.27747
C         -0.46000       -3.35912       -3.56522
C         -0.30357       -2.16532       -4.26149
C         -0.70292       -0.97058       -3.67441
C         -1.24870       -0.97175       -2.38822
C          1.17242       -2.21203        1.32630
C          1.40517       -3.45740        0.73279
C          2.15900       -4.43076        1.39059
C          2.73002       -4.15039        2.62990
C          2.54664       -2.89650        3.21058
C          1.76787       -1.93398        2.56474
H          0.57541        0.64210       -0.45040
H          2.16713       -0.17180        0.01124
H         -1.40937       -1.35792        1.76578
H         -1.45293       -0.14043        0.53723
H         -2.54514       -3.42055        1.45182
H         -2.77776       -4.15996       -0.12951
H         -1.16206       -4.03574        0.55710
H         -3.44292       -0.54045       -0.69423
H         -4.04413       -2.18246       -0.93082
H         -3.86933       -1.52392        0.70455
H         -1.10148       -4.31734       -1.77508
H         -0.15002       -4.29615       -4.02054
H          0.12940       -2.16634       -5.25774
H         -0.58331       -0.03344       -4.21118
H         -1.53902       -0.01717       -1.95535
H          1.00244       -3.67631       -0.25134
H          2.30823       -5.40291        0.92834
H          3.32811       -4.90326        3.13575
H          3.01474       -2.66535        4.16365
H          1.64143       -0.95575        3.02309
