17

O          1.09527        0.01355        0.01214
C          0.49815        0.45212        1.22584
C          0.90549       -0.43668        2.37103
C          0.62648       -1.81206        2.33127
C          0.98924       -2.64362        3.39320
C          1.62949       -2.09659        4.49989
O          1.99733       -2.86862        5.56172
C          1.91328       -0.73774        4.55856
C          1.55163        0.09310        3.49641
H          1.95001       -0.38978        0.24259
H          0.81283        1.48673        1.39655
H         -0.59033        0.44591        1.10936
H          0.12208       -2.23825        1.46542
H          0.76366       -3.70369        3.33857
H          1.71915       -3.78308        5.39028
H          2.41211       -0.32511        5.43116
H          1.77630        1.15554        3.55778
