52

C          1.02044       -0.25647        0.01832
O          0.49216        1.06211        0.13934
C          1.09735        1.80298        1.09411
O          1.98579        1.44694        1.85369
C          0.60504        3.18804        0.99720
C          1.51598        4.21647        1.22781
C          1.09649        5.53404        1.11684
C         -0.24681        5.84185        0.82527
C         -0.52177        7.30232        0.85437
O          0.07421        8.03747        1.63050
O         -1.40993        7.71748       -0.07908
C         -1.69929        9.12583        0.00251
C         -1.20023        4.79975        0.68441
N         -2.58078        5.01828        0.83921
N         -3.33406        4.66613       -0.08813
C         -4.79030        5.00891        0.14532
C         -5.31971        4.75845        1.55682
C         -6.70424        5.28068        1.90666
O         -4.72793        4.06283        2.38762
C         -5.15440        6.34552       -0.52450
O         -5.39306        6.36360       -1.74070
N         -5.37133        7.52477        0.16219
C         -4.90842        7.95275        1.42093
C         -5.55889        8.95779        2.15515
C         -5.07023        9.36503        3.42197
C         -3.91942        8.76989        3.89547
N         -3.16286        8.97914        5.04478
C         -2.00006        8.18525        4.97809
O         -1.09102        8.14498        5.78669
N         -2.08657        7.46263        3.78736
C         -3.25761        7.82909        3.14348
C         -3.72761        7.44866        1.92234
C         -0.74242        3.47316        0.73454
H          0.62786       -0.69085       -0.90436
H          0.69347       -0.86522        0.86544
H          2.11348       -0.23971       -0.05020
H          2.54679        3.99839        1.50097
H          1.81523        6.33197        1.30800
H         -1.74513        9.48287        1.03952
H         -0.94698        9.69466       -0.54943
H         -2.68077        9.30563       -0.44575
H         -5.34318        4.25449       -0.43729
H         -7.34944        4.44944        2.20158
H         -6.62666        5.98969        2.73631
H         -7.18307        5.77887        1.06097
H         -5.87733        8.20732       -0.39390
H         -6.45877        9.42533        1.76349
H         -5.57452       10.13672        3.98980
H         -3.33986        9.62315        5.79538
H         -1.35609        6.85220        3.45598
H         -3.10469        6.88064        1.28797
H         -1.46288        2.66015        0.66150
