29

C          1.00209       -0.13940       -0.05044
C          0.50564        0.32547        1.31344
C          0.88682        1.78226        1.68519
C          0.36101        2.75896        0.61716
C          0.45537        2.20186        3.09840
C          0.60101        3.53314        3.51600
C          0.23241        3.93975        4.80626
C         -0.25892        3.04501        5.74144
N         -0.58563        3.48049        6.97287
C         -1.03804        2.57252        7.86495
C         -1.18336        1.22710        7.58845
C         -0.85177        0.78564        6.31326
C         -0.38221        1.69788        5.35715
C         -0.03341        1.29225        4.05056
H          0.49379        0.37887       -0.86811
H          0.80063       -1.20892       -0.17350
H          2.08069        0.01524       -0.14997
H         -0.58418        0.20119        1.35253
H          0.93491       -0.36295        2.05142
H          1.98439        1.83923        1.67769
H         -0.73399        2.76663        0.59357
H          0.69860        3.78495        0.79175
H          0.72442        2.49892       -0.38129
H          1.01080        4.28900        2.85065
H          0.34421        4.98345        5.08948
H         -1.28610        2.97282        8.84392
H         -1.54451        0.53976        8.34462
H         -0.95534       -0.26838        6.07031
H         -0.14919        0.24080        3.80359
