23

C          0.97671        0.01371       -0.17733
C          0.33262        1.12102        0.21451
C         -1.13676        1.30156        0.19540
O         -1.64903        2.39972        0.34805
O         -1.76960        0.11289        0.04810
C         -3.19459        0.13353        0.21478
C         -3.61691       -0.58745        1.51009
N         -3.24972        0.15312        2.73307
C         -4.24055       -0.05303        3.79109
C         -1.92862       -0.23393        3.23418
H          0.45051       -0.85434       -0.56205
H          2.05908       -0.04034       -0.12490
H          0.88006        1.98260        0.58122
H         -3.61580        1.14510        0.17782
H         -3.61378       -0.41008       -0.63980
H         -4.70877       -0.68909        1.45452
H         -3.20583       -1.60459        1.53339
H         -4.32821       -1.10865        4.07311
H         -3.97441        0.52296        4.68473
H         -5.22619        0.30395        3.47306
H         -1.92662       -1.24598        3.65495
H         -1.16184       -0.20219        2.45865
H         -1.60587        0.46525        4.01375
