13

O         -2.45794        1.55543       -0.00869
C         -1.17674        1.07802       -0.00076
C         -0.10500        1.97131        0.00040
C          1.20221        1.47942        0.00783
C          1.42835        0.10234        0.01404
Cl         3.04248       -0.49379        0.02258
C          0.36108       -0.79298        0.01331
C         -0.94511       -0.30263        0.00599
Cl        -2.24963       -1.43277        0.00520
H         -2.44565        2.52612       -0.01710
H         -0.26613        3.04531       -0.00426
H          2.03981        2.17291        0.00868
H          0.54370       -1.86380        0.01827
