41

C         -1.26193        0.79459       -0.85890
C         -0.15884        1.68741       -0.30278
C          1.23313        1.14228       -0.64304
C          1.44271       -0.31845       -0.16892
C          1.61537       -0.31020        1.36202
O          1.92840       -1.50643        2.05067
C          1.00148       -2.55323        2.25408
C         -0.40269       -2.30765        2.87138
C         -0.77991       -3.51957        3.75641
C         -2.18064       -3.40450        4.35350
C         -2.35795       -2.10312        5.12415
C         -2.02517       -0.90874        4.24930
C         -0.61951       -1.00764        3.65733
C          0.31041       -1.18219       -0.73957
C         -1.08500       -0.65326       -0.42020
H         -1.25647        0.84794       -1.95414
H         -2.23977        1.16083       -0.52598
H         -0.26880        2.69968       -0.70675
H         -0.27874        1.77811        0.78379
H          1.99450        1.79846       -0.20535
H          1.37158        1.18840       -1.73087
H          2.38103       -0.69235       -0.59673
H          2.49081        0.32517        1.55703
H          0.80991        0.21798        1.84340
H          0.89423       -3.12566        1.32689
H          1.53864       -3.24771        2.91400
H         -1.11503       -2.31007        2.03827
H         -0.71567       -4.44525        3.17152
H         -0.05566       -3.61013        4.57685
H         -2.36723       -4.25210        5.02221
H         -2.92487       -3.45986        3.54983
H         -1.70800       -2.10113        6.00708
H         -3.38999       -2.02020        5.48257
H         -2.11309        0.01751        4.82870
H         -2.75595       -0.83848        3.43264
H          0.13483       -0.90879        4.44501
H         -0.54171       -0.13755        3.01201
H          0.40196       -2.22225       -0.42591
H          0.41981       -1.20363       -1.83312
H         -1.27742       -0.71565        0.65273
H         -1.83520       -1.28117       -0.91404
