24

C          1.02744        0.00034        0.07407
C          0.56129       -0.09402       -1.34742
C          0.30583        1.07636       -2.06924
C         -0.11328        1.02120       -3.40457
C         -0.36213        2.19642       -4.13739
C         -0.78340        2.13086       -5.46309
C         -0.97024        0.89125       -6.06265
C         -0.72238       -0.27388       -5.32920
O         -0.92004       -1.49200       -5.93968
C         -0.27930       -0.24449       -3.99768
N         -0.01630       -1.37630       -3.30613
C          0.41304       -1.30583       -2.02058
C          0.70045       -2.63698       -1.39044
H          0.48809       -0.70740        0.71144
H          0.84367        0.99800        0.48778
H          2.10198       -0.19921        0.13182
H          0.43625        2.04266       -1.58602
H         -0.22354        3.17189       -3.67568
H         -0.96548        3.04394       -6.02383
H         -1.29999        0.84483       -7.09572
H         -1.31236       -1.35327       -6.81426
H         -0.23473       -3.18588       -1.24290
H          1.34945       -3.22204       -2.05102
H          1.21026       -2.55676       -0.42755
