25

N          1.10447        0.12061        0.15642
C          0.46256        0.53485       -1.03425
C          0.86702        0.06657       -2.27493
C          0.10899        0.37467       -3.41721
S          0.69523       -0.22686       -4.98041
O         -0.22880       -1.23443       -5.45116
O          1.06305        0.90912       -5.79615
O          2.08252       -0.99687       -4.67813
C         -1.10135        1.12394       -3.34506
C         -1.91659        1.46731       -4.45553
C         -3.10076        2.19427       -4.30777
C         -3.51052        2.60058       -3.04752
C         -2.73322        2.28141       -1.93712
C         -1.53301        1.55183       -2.06407
C         -0.74829        1.23387       -0.94086
O         -1.14109        1.62427        0.32022
H          0.64442       -0.71862        0.51588
H          2.08562       -0.10274       -0.00717
H          1.76768       -0.53533       -2.35382
H          2.55418       -1.09588       -5.53208
H         -1.64700        1.17260       -5.46804
H         -3.70015        2.43867       -5.18123
H         -4.43102        3.16466       -2.92415
H         -3.06750        2.60848       -0.95340
H         -0.38001        1.38206        0.88728
