26

C          0.64375        0.16856        0.85062
C          0.47090        1.67607        0.88924
C          1.12876        2.38124       -0.29497
C          0.45656        2.08613       -1.59713
O          1.24576        2.47949       -2.72330
C          0.90231        1.06956       -2.66351
C          2.14181        0.21147       -2.51498
C          1.85579       -1.26764       -2.29528
C         -0.13536        0.68523       -3.67650
N         -0.23262        1.51530       -4.75535
O         -0.86070       -0.28588       -3.52374
H          0.05282       -0.26591        0.03973
H          0.29857       -0.28033        1.78660
H          1.69468       -0.10457        0.71162
H         -0.59848        1.91458        0.92801
H          0.91895        2.05612        1.81463
H          1.05216        3.46308       -0.12473
H          2.19965        2.15665       -0.32260
H         -0.58468        2.39128       -1.59268
H          2.73981        0.31253       -3.42869
H          2.77358        0.56684       -1.69527
H          1.27919       -1.69777       -3.11909
H          2.79557       -1.82538       -2.22585
H          1.29798       -1.44204       -1.37331
H         -0.99502        1.37474       -5.40222
H          0.26279        2.39836       -4.75043
