24

C          0.94032       -0.10017        0.14405
C          0.44848        0.84343       -0.95103
C          0.96310        0.52010       -2.34079
C          0.87531       -0.81131       -2.79793
C          1.32784       -1.18192       -4.06470
C          1.86430       -0.22550       -4.91274
C          1.92727        1.10290       -4.49928
C          1.46949        1.49977       -3.22514
C          1.56001        2.97526       -2.89677
C          2.98322        3.40708       -2.57145
H          0.55883       -1.11746        0.01495
H          0.59725        0.25261        1.12243
H          2.03430       -0.14484        0.16280
H         -0.64794        0.83642       -0.97860
H          0.75114        1.84655       -0.64234
H          0.44363       -1.58423       -2.16651
H          1.25688       -2.21777       -4.38526
H          2.22322       -0.50678       -5.89870
H          2.33584        1.84322       -5.18454
H          1.19591        3.54954       -3.75874
H          0.89054        3.25380       -2.07910
H          3.64588        3.27311       -3.43367
H          3.00357        4.46739       -2.29989
H          3.39585        2.83062       -1.73724
