34

C          1.09059       -0.20315       -0.24793
C          0.43926       -1.45955        0.24155
O         -0.19989       -1.52065        1.28212
O          0.67413       -2.48192       -0.62714
C          0.15333       -3.82508       -0.37019
C          0.78127       -4.37010        0.92752
C         -1.38205       -3.78548       -0.25158
C          0.62207       -4.71120       -1.58913
C          0.22334       -4.10568       -2.95829
C          0.28928       -5.06110       -4.11843
C          0.49498       -6.38352       -3.99967
C          0.52325       -7.30445       -5.18550
C          0.69090       -7.03271       -2.65844
C          0.17098       -6.18304       -1.49786
H          0.85980        0.61238        0.44506
H          0.69904        0.06156       -1.23273
H          2.17456       -0.33421       -0.28011
H          0.55086       -3.74501        1.79461
H          0.42639       -5.37610        1.16717
H          1.87399       -4.39145        0.84734
H         -1.83660       -3.25413       -1.09327
H         -1.81859       -4.78538       -0.18760
H         -1.70821       -3.25451        0.64739
H          1.72349       -4.71026       -1.57621
H          0.88290       -3.25628       -3.17622
H         -0.79663       -3.71102       -2.93198
H          0.13757       -4.62457       -5.10368
H          1.47453       -7.84394       -5.22834
H         -0.28782       -8.03726       -5.11163
H          0.39794       -6.76591       -6.13038
H          0.17044       -7.99799       -2.63094
H          1.75897       -7.24057       -2.52016
H          0.51847       -6.64296       -0.56761
H         -0.92316       -6.24319       -1.49555
