24

C          1.02249        0.04455       -0.00371
C          0.43537        1.39264       -0.38710
C         -0.79362        1.76317        0.43409
C         -0.93441        3.25390        0.16369
C          0.51258        3.79025        0.16769
C          0.87125        4.35708        1.55034
C          0.68608        4.89130       -0.88387
C          1.40005        2.56035       -0.14991
H          0.30517       -0.75856       -0.20175
H          1.28290        0.00841        1.05949
H          1.93000       -0.16013       -0.58094
H          0.16274        1.37066       -1.45056
H         -1.68289        1.20532        0.12477
H         -0.62956        1.58142        1.50272
H         -1.57608        3.74090        0.90541
H         -1.40206        3.39752       -0.81858
H          1.91208        4.69872        1.57742
H          0.23245        5.21017        1.80495
H          0.74717        3.60360        2.33614
H          0.45689        4.52011       -1.88906
H          0.02103        5.73811       -0.68109
H          1.71541        5.26670       -0.89577
H          2.07586        2.33821        0.68518
H          2.03111        2.71534       -1.03281
