63

C          0.58156        0.14840       -0.11248
C          0.49748        0.30403       -1.62405
N          1.01117       -0.85455       -2.35949
C          0.06143       -1.81613       -2.92833
C         -0.14133       -1.63952       -4.42683
C          2.37217       -1.06438       -2.49196
C          3.18822       -1.30978       -1.38546
C          4.56247       -1.53662       -1.52064
C          5.17309       -1.53603       -2.78468
C          4.36721       -1.29597       -3.89357
C          2.99435       -1.05641       -3.74405
O          4.82893       -1.27242       -5.18569
C          6.15306       -1.54679       -5.42468
C          6.53380       -1.53773       -6.78106
C          7.84767       -1.79584       -7.20203
N          8.23485       -1.77150       -8.53957
C          7.26469       -1.80235       -9.64569
C          7.30018       -0.50251      -10.43842
C          9.64857       -1.89654       -8.93204
C         10.41654       -0.60565       -8.67424
C          8.75888       -2.06197       -6.16594
C          8.39346       -2.07090       -4.81169
C          7.07714       -1.80791       -4.41958
C          6.65191       -1.80341       -2.96680
O          6.91593       -3.13292       -2.43216
C          7.78044       -3.10971       -1.37973
O          8.16470       -4.06425       -0.73256
C          8.16377       -1.72179       -1.17363
C          9.02931       -1.20597       -0.22485
C          9.24276        0.17215       -0.22965
C          8.59320        0.98915       -1.17129
C          7.72040        0.43955       -2.11717
C          7.51423       -0.93267       -2.10342
H          0.33084       -0.86675        0.21142
H         -0.10260        0.84609        0.38105
H          1.58585        0.39016        0.25050
H         -0.55592        0.45962       -1.88872
H          1.02125        1.21526       -1.93624
H          0.37788       -2.84341       -2.71111
H         -0.91276       -1.69375       -2.43870
H          0.65850       -2.13001       -4.99108
H         -1.07779       -2.10991       -4.74312
H         -0.17067       -0.58407       -4.71590
H          2.75933       -1.37128       -0.39048
H          5.14128       -1.73002       -0.62026
H          2.41572       -0.83867       -4.63577
H          5.75404       -1.29881       -7.49680
H          7.50857       -2.63739      -10.31489
H          6.23941       -1.99970       -9.32240
H          8.26090       -0.37664      -10.94921
H          6.51970       -0.50322      -11.20579
H          7.14774        0.36551       -9.78954
H         10.12561       -2.74982       -8.43707
H          9.72240       -2.11899      -10.00421
H         10.45487       -0.35245       -7.61089
H         11.44684       -0.70454       -9.02958
H          9.95623        0.23979       -9.19512
H          9.80109       -2.27873       -6.37864
H          9.16256       -2.28682       -4.07326
H          9.52134       -1.85403        0.49382
H          9.91627        0.61838        0.49903
H          8.77221        2.06277       -1.16259
H          7.21998        1.07615       -2.84202
