32

N          2.35578       -0.17574        0.19236
C          1.01226       -0.20836        0.57403
C          0.18680       -1.25823        0.15616
C         -1.20131       -1.19243        0.32447
C         -1.77107       -0.04835        0.88898
S         -3.53500        0.12107        0.99847
O         -4.13530       -1.13771        0.60345
O         -3.83728        0.69341        2.29387
N         -4.03087        1.26176       -0.17055
C         -3.27723        2.47704       -0.35381
C         -3.71321        3.62693        0.32446
C         -2.99188        4.82294        0.24293
C         -1.80416        4.87346       -0.47925
C         -1.36556        3.74221       -1.16567
C         -2.11321        2.55005       -1.14461
C         -1.58637        1.45376       -2.00164
O         -0.48066        1.42527       -2.50049
O         -2.47463        0.47723       -2.24877
C         -0.95422        0.97645        1.37199
C          0.42496        0.91597        1.16131
H          2.78595       -1.08367        0.05580
H          2.93764        0.46779        0.71699
H          0.62027       -2.12769       -0.33257
H         -1.82187       -2.01660       -0.02021
H         -5.00937        1.46019        0.04694
H         -4.62496        3.61271        0.91782
H         -3.35327        5.71544        0.75029
H         -1.22483        5.79346       -0.52261
H         -0.43658        3.79409       -1.73287
H         -1.98389       -0.16089       -2.80531
H         -1.38586        1.85481        1.84555
H          1.03746        1.76959        1.43964
