43

C         -0.49142       -0.62613        0.06151
C          0.01253       -1.10800       -1.29507
O          0.90773       -2.17769       -1.09616
P          2.63773       -2.17769       -1.09616
O          2.62327       -2.47316       -2.59768
N          2.72055       -0.51366       -0.79233
C          3.46954        0.43379       -1.61881
C          2.78122        0.77296       -2.93761
C          3.66832        1.71068       -0.79595
O          4.36773       -2.17769       -1.09616
C          5.03075       -2.25400        0.10068
C          4.66375       -3.12542        1.11104
C          5.39844       -3.12864        2.29892
C          6.49457       -2.25578        2.49178
S          7.30320       -2.41439        4.08543
C          6.10017       -1.78072        5.22488
O          7.44591       -3.83633        4.33793
O          8.45403       -1.54032        4.16524
C          6.88823       -1.38923        1.45787
C          8.01347       -0.39358        1.46768
C          6.13604       -1.41780        0.26274
H         -1.04511       -1.42485        0.56737
H         -1.14830        0.24077       -0.04668
H          0.32447       -0.36024        0.74126
H         -0.84172       -1.49527       -1.85969
H          0.44144       -0.30526       -1.89233
H          1.90613       -0.07928       -0.40135
H          4.46488        0.04615       -1.85278
H          1.79982        1.23018       -2.78036
H          3.38618        1.48877       -3.50637
H          2.65546       -0.11199       -3.56699
H          4.18517        1.49564        0.14633
H          4.27567        2.43689       -1.34700
H          2.71109        2.18809       -0.55596
H          3.84442       -3.82640        0.98948
H          5.12049       -3.84048        3.07624
H          5.20580       -2.40521        5.19486
H          6.53580       -1.81510        6.22637
H          5.86484       -0.74865        4.95934
H          8.63651       -0.53492        0.57640
H          7.60326        0.62238        1.44426
H          8.68973       -0.45258        2.31168
H          6.41174       -0.76119       -0.56263
