20

C          0.72944       -0.30038        0.26081
C          0.34896       -1.20157       -0.88105
O         -0.36622       -2.18850       -0.67747
N          0.67365       -0.89640       -2.16869
C          1.59662        0.00800       -2.72593
C          1.30754        0.45960       -4.02195
C          2.15152        1.36182       -4.67434
C          3.31209        1.80501       -4.04782
C          3.64079        1.32825       -2.77978
C          2.79531        0.42212       -2.13028
O          3.21352       -0.12725       -0.95084
H         -0.12363       -0.23432        0.94474
H          0.94299        0.71820       -0.06855
H          1.57419       -0.72490        0.80730
H          0.11719       -1.43303       -2.82256
H          0.40122        0.13656       -4.52932
H          1.89934        1.71822       -5.67011
H          3.97030        2.50629       -4.55472
H          4.56893        1.65711       -2.32151
H          4.11524        0.17623       -0.75731
