17

O          1.01258       -0.02139        0.00844
C          0.39494        1.19482       -0.41145
C          0.91817        2.35149        0.43384
C          0.31421        3.69585        0.07388
C          1.40923        4.64240        0.49793
C          2.65574        3.87637        0.10840
O          2.34424        2.47992        0.23187
H          1.96402        0.18884        0.09117
H          0.64047        1.33535       -1.46915
H         -0.68834        1.08432       -0.30868
H          0.77820        2.13234        1.49948
H          0.15405        3.77864       -1.00790
H         -0.63905        3.88119        0.57649
H          1.34801        5.62617        0.02546
H          1.37991        4.78118        1.58520
H          2.92545        4.06459       -0.93623
H          3.51426        4.12018        0.74028
