19

C          1.07765        0.06399        0.09057
C          0.52599        0.17827       -1.33708
C          1.18350       -0.87709       -2.23528
N         -0.95113        0.18155       -1.33735
C         -1.50276        0.59684       -2.62762
C         -1.56603       -1.07238       -0.90625
H          0.92402       -0.93349        0.51480
H          0.60747        0.79784        0.75441
H          2.15593        0.25975        0.09811
H          0.85297        1.16261       -1.69896
H          0.95071       -1.89587       -1.90989
H          0.87329       -0.76907       -3.27906
H          2.27382       -0.76781       -2.21206
H         -1.32991       -0.14254       -3.41694
H         -2.58427        0.75490       -2.54541
H         -1.07455        1.55310       -2.94746
H         -1.34790       -1.90426       -1.58410
H         -1.24800       -1.35095        0.10287
H         -2.65567       -0.96131       -0.85520
