81

C         -1.26794        0.57839        0.72753
C         -0.69506        1.28775       -0.49114
O         -1.25735        3.03972       -0.73346
C         -0.08093        4.40724       -1.14053
O          1.50339        4.52551       -0.27850
C          2.21246        3.13675       -0.06088
C          0.67426        2.80664       -0.23027
C          0.04919        2.08644       -2.14677
C          1.12036        0.67364       -2.93275
C          0.79317        0.79860       -4.45828
O          0.02467        0.04950       -5.05146
C          0.70972       -1.05728       -2.22409
C          1.97537       -1.13917       -2.80890
C          3.28547       -1.04683       -1.31311
C          3.52560       -2.06571       -0.19798
C          4.10142       -1.22695        1.01193
C          4.27696       -3.55162       -0.34502
C          5.03403       -4.59683       -1.22826
C          4.48128       -5.83123       -1.24582
C          4.42469       -6.27112       -2.63578
O          3.65677       -7.12390       -3.04340
O          5.22196       -5.46871       -3.37675
C          5.80070       -4.47052       -2.51940
C          3.90472       -4.07982        1.02566
C          2.39376       -3.69528        1.02465
C          2.09948       -2.54431       -0.05887
O          1.17054       -1.65024        0.54654
C          1.78693       -2.56020       -1.77350
C          3.42719       -2.47220       -2.92795
C          4.02417       -0.66281       -3.37999
C          3.06696        0.90648       -2.69386
O          3.58021        1.73711       -3.78726
C          3.46618        1.90409       -1.02541
C          0.80949        4.35556       -2.35698
O          1.66317        5.54837       -2.37735
C          1.83601        2.88192       -2.12916
O          3.16182        3.58674       -2.29639
C          1.26206        1.23430       -0.89693
O          1.82136        0.90301        0.49041
H         -1.26697       -0.50310        0.51577
H         -2.30918        0.87118        0.88197
H         -0.69902        0.72639        1.64095
H         -1.25628        0.70712       -1.25608
H         -0.58644        5.32568       -0.83258
H          2.55401        3.14703        0.98304
H          0.48722        2.18181        0.68622
H          0.05937        3.48179        0.47665
H         -0.07045        2.75171       -3.00968
H         -1.01190        1.83413       -2.39578
H          1.28090        1.63994       -4.98631
H         -0.10982       -1.43843       -2.84652
H          1.71676       -1.98379       -3.55087
H          2.18552       -0.64156       -3.76641
H          2.94659       -0.25111       -0.73674
H          4.31968       -0.72946       -1.48735
H          4.24410       -1.74561        1.95654
H          5.05729       -0.76741        0.73511
H          3.43993       -0.41052        1.30530
H          3.41999       -3.92570       -0.92243
H          3.73750       -6.22806       -0.57081
H          6.85737       -4.71469       -2.39910
H          5.77408       -3.52665       -3.06510
H          4.08617       -5.13668        1.22106
H          4.50919       -3.58746        1.79836
H          2.18209       -3.31635        2.03721
H          1.77586       -4.57867        0.86909
H          0.46328       -2.21095        0.92434
H          1.22596       -3.47662       -2.01782
H          3.24857       -3.03901       -3.85744
H          4.25819       -2.84678       -2.41279
H          3.95865       -0.62430       -4.48303
H          5.10257       -0.58016       -3.17571
H          4.04502        2.48834       -3.35678
H          4.40833        2.45482       -1.19740
H          3.82967        1.22435       -0.24973
H          0.30624        4.40499       -3.32750
H          1.80955        5.76181       -1.42612
H          1.77327        2.61478       -3.18512
H          3.08138        4.45893       -1.86034
H          1.44164        0.26266       -1.16927
H          1.42762        0.02901        0.73112
