33

C          0.53961        0.03098        0.50405
C          0.17914       -1.19471        1.29727
O         -0.52962       -1.10502        2.30199
N          0.56639       -2.43335        0.87388
C          1.50891       -2.82961       -0.09231
C          2.69813       -2.10447       -0.27582
C          3.70373       -2.53685       -1.15219
N          5.02980       -2.00318       -1.03429
S          5.42645       -0.37805       -1.26283
O          6.86894       -0.37236       -1.11931
O          4.85001        0.01490       -2.54304
C          4.66991        0.60212        0.13473
F          3.38720        0.96944       -0.14694
F          4.62752       -0.10227        1.30248
F          5.35119        1.75266        0.39599
C          3.47422       -3.67905       -1.93432
C          4.43797       -4.21429       -2.95851
C          2.29964       -4.42409       -1.71895
C          1.33222       -4.03876       -0.77639
C          0.16944       -4.97098       -0.56236
H         -0.31847        0.71124        0.50600
H          0.75712       -0.19911       -0.54103
H          1.38505        0.53277        0.97620
H          0.05688       -3.16298        1.35664
H          2.88445       -1.28275        0.39886
H          5.77710       -2.57528       -1.43046
H          4.93876       -5.10788       -2.57305
H          3.89507       -4.48407       -3.87284
H          5.19298       -3.48118       -3.25315
H          2.14931       -5.34836       -2.27878
H         -0.30774       -5.20519       -1.51924
H          0.52642       -5.90064       -0.10517
H         -0.60772       -4.56061        0.08591
