42

C          0.98961       -0.04175       -0.19588
C          0.53274       -0.35426        1.22389
C          1.01711        0.64981        2.29219
C          0.48673        2.06751        2.04310
O          0.61598        0.17584        3.59186
O         -0.84715        0.19091        3.63688
C         -1.24001       -0.20148        4.96180
C         -0.74692       -1.61908        5.26953
C         -0.72576        0.80774        5.99288
C         -2.77292       -0.18909        4.96096
O          2.45779        0.66796        2.19846
O          2.95268        1.52335        3.27733
C          4.38722        1.45711        3.25189
C          4.85812        0.03790        3.58308
C          4.92583        1.92275        1.89426
C          4.86944        2.42048        4.34199
H          0.58779        0.91432       -0.54388
H          0.63483       -0.81899       -0.88066
H          2.08075       -0.00748       -0.26876
H         -0.56113       -0.42784        1.23467
H          0.90306       -1.35352        1.48898
H         -0.59800        2.07301        1.89478
H          0.68884        2.71311        2.90556
H          0.96488        2.53019        1.17377
H          0.34685       -1.66292        5.31176
H         -1.13374       -1.97846        6.22892
H         -1.05725       -2.31733        4.48392
H         -1.02879        1.82608        5.72431
H         -1.10451        0.58385        6.99572
H          0.36868        0.81025        6.04001
H         -3.15475        0.80630        4.70565
H         -3.16770       -0.87482        4.20211
H         -3.18232       -0.47771        5.93463
H          4.54127       -0.67798        2.81682
H          5.94919       -0.01400        3.66170
H          4.42335       -0.30512        4.52874
H          4.51231        2.90192        1.62748
H          6.01855        1.99414        1.89955
H          4.64072        1.23404        1.09130
H          4.50996        3.43801        4.14894
H          4.47068        2.13269        5.32166
H          5.96223        2.44617        4.40684
