31

C          1.49478        0.15673       -0.21639
C          0.95366       -1.24877       -0.42433
C          1.10197       -2.14906        0.80291
C          0.33531       -1.74619        2.08105
C         -1.20338       -1.96338        2.06778
C         -1.84567       -1.63513        3.45219
C         -1.28041       -2.37512        4.66016
C         -1.52347       -3.41364        1.73502
O         -0.85553       -4.36353        2.14181
N         -2.63649       -3.64936        0.98406
C         -3.18741       -2.75443        0.12565
O         -3.90633       -3.11110       -0.79992
N         -2.84695       -1.45222        0.29997
C         -1.85905       -0.97812        1.11207
O         -1.58155        0.22065        1.08863
H          0.93674        0.70138        0.54895
H          1.42338        0.72696       -1.14818
H          2.54731        0.12920        0.08249
H         -0.08526       -1.20699       -0.76076
H          1.51334       -1.70730       -1.24933
H          0.83109       -3.17044        0.51294
H          2.16906       -2.19235        1.05853
H          0.76954       -2.35683        2.88265
H          0.57013       -0.70736        2.34090
H         -1.75024       -0.55920        3.65307
H         -2.92517       -1.83594        3.41037
H         -0.22678       -2.13616        4.82780
H         -1.82487       -2.07555        5.56239
H         -1.38529       -3.45847        4.55936
H         -2.81336       -4.62007        0.76223
H         -3.24238       -0.79250       -0.35589
