32

C          1.80465        1.53042       -0.16287
C          0.54537        0.71566       -0.05299
C         -0.69659        1.37969       -0.03367
C         -1.90953        0.67663        0.03554
C         -3.19839        1.38387        0.05126
C         -4.10080        1.21347        1.10699
C         -5.32465        1.88921        1.11925
C         -5.70440        2.71816        0.05802
N         -6.88966        3.46167        0.17122
C         -4.78459        2.95278       -0.97753
C         -5.08712        3.90894       -2.09820
C         -3.55503        2.26579       -0.98089
C         -1.85433       -0.72113        0.06948
C         -0.62681       -1.39008        0.05250
C          0.58169       -0.68504        0.04781
N          1.78187       -1.40094       -0.08459
H          2.40680        1.41925        0.74441
H          2.39021        1.21328       -1.03163
H          1.58673        2.59627       -0.28804
H         -0.71961        2.46787       -0.07483
H         -3.84646        0.56821        1.94501
H         -5.98406        1.75949        1.97342
H         -7.59337        3.01496        0.75039
H         -7.26991        3.76321       -0.71930
H         -5.94273        3.55097       -2.67949
H         -5.30562        4.90549       -1.70155
H         -4.23900        4.00957       -2.78359
H         -2.85965        2.42213       -1.80451
H         -2.77240       -1.30442        0.08514
H         -0.62464       -2.47690        0.04367
H          1.73711       -2.33961        0.29891
H          2.59738       -0.89682        0.24611
