42

C          2.92629       -0.28611       -1.06895
C          2.00808        0.43282       -2.05916
C          1.18456       -0.47943       -3.00144
C          0.17332       -1.56091       -2.48707
O         -1.05901       -1.18155       -1.82572
P         -0.94834       -0.03926       -0.69789
O          0.41364       -0.13632       -0.08456
C         -1.34386        1.41902       -1.67413
C         -2.80425        1.62713       -2.10325
C         -3.73949        2.35943       -1.13077
C         -3.14883        3.60568       -0.49006
C         -2.11758       -0.12342        0.63501
C         -1.53966       -0.20918        2.06727
C         -0.24578        0.55895        2.43133
C         -0.09575        1.98503        1.91334
H          2.50971       -1.22788       -0.69919
H          3.11548        0.35454       -0.19654
H          3.89328       -0.50433       -1.52739
H          1.36669        1.14979       -1.53852
H          2.63740        1.09414       -2.66614
H          0.65380        0.18026       -3.69642
H          1.92836       -1.01457       -3.60524
H         -0.15097       -2.10556       -3.38391
H          0.68312       -2.29307       -1.85492
H         -0.93196        2.30859       -1.20176
H         -0.78538        1.32033       -2.60840
H         -2.79285        2.21447       -3.03076
H         -3.25554        0.66066       -2.36026
H         -4.64598        2.64944       -1.67690
H         -4.09798        1.67992       -0.35368
H         -2.96627        4.37771       -1.24343
H         -3.84165        4.01117        0.25369
H         -2.21178        3.40174        0.03324
H         -2.64575        0.82613        0.64102
H         -2.87475       -0.89922        0.48014
H         -2.32287        0.12971        2.75700
H         -1.36515       -1.26604        2.29931
H         -0.15765        0.58840        3.52309
H          0.62795       -0.02801        2.12356
H         -0.83003        2.65399        2.36556
H          0.90605        2.36203        2.15331
H         -0.19187        2.06559        0.83202
