40

C          0.82104       -0.12669       -0.03240
C          0.04147       -1.05666       -0.60740
C         -1.43602       -0.92316       -0.77637
C          0.68791       -2.31125       -1.06618
O          1.60392       -2.86271       -0.47634
O          0.13229       -2.69216       -2.24305
C          0.71193       -3.83807       -2.88615
C          1.66336       -3.40780       -4.00477
C          2.87398       -2.59107       -3.54150
C          3.87874       -3.37640       -2.68976
C          4.89341       -4.18986       -3.49945
C          5.89342       -3.35495       -4.30229
O          6.72008       -2.56940       -3.42925
C          6.37615       -1.26555       -3.27649
O          5.44226       -0.69162       -3.81446
C          7.24730       -0.61787       -2.26107
C          8.55629       -0.91058       -2.19341
C          6.57577        0.38612       -1.37796
H          0.41110        0.80820        0.33450
H          1.89293       -0.27415        0.07693
H         -1.69641       -0.78699       -1.83057
H         -1.94448       -1.81880       -0.40370
H         -1.83026       -0.06709       -0.21881
H          1.18961       -4.51597       -2.17153
H         -0.11983       -4.39651       -3.32993
H          1.99949       -4.29098       -4.55898
H          1.09987       -2.78213       -4.70900
H          3.36434       -2.17954       -4.42903
H          2.52938       -1.72091       -2.97193
H          4.41165       -2.67831       -2.03476
H          3.35517       -4.06220       -2.01668
H          5.45773       -4.80650       -2.78804
H          4.36748       -4.87632       -4.17205
H          6.56756       -4.03495       -4.83498
H          5.40592       -2.74456       -5.06922
H          9.20331       -0.43104       -1.46639
H          9.01699       -1.62979       -2.86442
H          6.04032        1.13685       -1.96792
H          5.85728       -0.11315       -0.71882
H          7.29539        0.91717       -0.74590
