22

Cl         3.06968       -0.00911       -0.35148
C          1.36098       -0.00029       -0.15568
C          0.69324        1.20581        0.03247
C         -0.68989        1.20835        0.21330
C         -1.40042        0.00292        0.20961
Cl        -3.10756        0.07858        0.48432
C         -0.74033       -1.22623        0.00165
C         -1.46021       -2.52350       -0.02527
C         -1.43597       -3.39263        1.09199
Cl        -0.54325       -2.92143        2.51691
C         -2.12366       -4.62237        1.07099
Cl        -2.04368       -5.68911        2.44686
C         -2.86812       -4.99034       -0.06307
Cl        -3.73321       -6.50351       -0.08507
C         -2.90953       -4.14008       -1.18146
Cl        -3.84009       -4.58826       -2.58507
C         -2.19718       -2.92450       -1.16657
Cl        -2.19630       -1.90165       -2.58238
C          0.65641       -1.20542       -0.18093
H          1.24164        2.14475        0.04532
H         -1.20832        2.15268        0.36226
H          1.20219       -2.13500       -0.33106
