20

C          1.01698       -0.06240        0.19184
C          0.58442        1.39645        0.10802
C          1.09442        2.18211       -1.12758
C          0.58400        1.55354       -2.43472
C          0.55792        3.62397       -1.03583
C          2.63089        2.23389       -1.15722
H          0.65379       -0.64170       -0.66146
H          0.60341       -0.51872        1.09753
H          2.10488       -0.15938        0.24418
H         -0.51292        1.42654        0.12804
H          0.92019        1.90287        1.02245
H         -0.50786        1.46237       -2.42913
H          0.86160        2.16574       -3.30059
H          1.00492        0.55592       -2.59695
H          0.90785        4.11913       -0.12297
H          0.88970        4.22707       -1.88863
H         -0.53782        3.63862       -1.02523
H          3.03059        2.63848       -0.22074
H          3.06769        1.24155       -1.30955
H          2.98757        2.87238       -1.97374
