9

O          1.02035        0.04297        0.09516
C          0.61605        0.26233       -1.25957
C          1.10248        1.61393       -1.78824
Cl         2.88917        1.64278       -1.83615
Cl         0.45642        1.92377       -3.41551
H          1.99548        0.00801        0.10283
H          0.98527       -0.57197       -1.86672
H         -0.47838        0.22325       -1.27267
H          0.78830        2.42659       -1.12693
