53

C          1.07221       -0.16687       -0.00231
O          0.85756       -0.51362        1.36416
C          1.23554       -1.79679        1.69484
C          0.27069       -2.48542        2.44809
C          0.51385       -3.77722        2.89586
C          1.72537       -4.36571        2.56637
C          2.71474       -3.67057        1.86401
C          2.50318       -2.36384        1.41528
O          3.34973       -1.52266        0.75918
C          4.72023       -1.82792        0.59990
C          3.87577       -4.57648        1.79479
O          4.94094       -4.43427        1.23078
O          3.58378       -5.67185        2.54787
C          2.19210       -5.73271        2.91417
C          1.51196       -6.97957        2.23863
C          1.35641       -6.85707        0.71613
C          2.34613       -7.43004       -0.13074
C          2.31077       -7.25680       -1.52215
C          1.25933       -6.54818       -2.05357
C          0.26921       -6.01833       -1.26198
C          0.28359       -6.16478        0.11721
O         -0.68125       -5.52509        0.84005
C         -1.68086       -6.40032        1.35273
O         -0.67286       -5.36245       -1.99864
C         -0.15416       -5.53708       -3.33227
O          1.06856       -6.29761       -3.37631
C          3.43231       -8.25706        0.49932
C          2.81237       -9.05194        1.64760
N          2.26477       -8.18895        2.69666
C          1.55974       -8.96154        3.71007
H          0.32775        0.58904       -0.27179
H          0.94304       -1.01923       -0.67860
H          2.05598        0.29331       -0.13238
H         -0.67911       -2.00315        2.66880
H         -0.24393       -4.30942        3.46212
H          5.19365       -2.06829        1.55580
H          4.85242       -2.59993       -0.16185
H          5.21476       -0.92864        0.21935
H          2.15744       -5.84840        4.00534
H          0.49871       -7.05525        2.64391
H          3.07626       -7.67394       -2.16812
H         -1.61948       -7.42159        0.96288
H         -1.59713       -6.42057        2.44439
H         -2.66156       -5.98188        1.10963
H          0.03028       -4.55015       -3.77230
H         -0.90756       -6.05450       -3.93768
H          4.24602       -7.61056        0.84494
H          3.85339       -8.95719       -0.23187
H          3.58891       -9.69526        2.07894
H          2.02989       -9.71345        1.24981
H          1.27050       -8.32497        4.55299
H          0.65983       -9.43870        3.30745
H          2.21078       -9.74270        4.11923
