74

C          1.18960        0.72805       -0.09764
C          0.96265       -0.41270       -1.07589
C          1.46173       -1.75883       -0.54772
C          0.81554       -2.21530        0.76367
C         -0.71525       -2.30384        0.74854
C         -1.32049       -3.04444       -0.43752
C         -1.20876       -4.53976       -0.34306
O         -2.17487       -5.25260       -0.56008
O          0.04712       -4.93372       -0.02891
C          0.51444       -6.29905       -0.15030
C         -0.13776       -7.33577        0.77446
C         -1.59361       -7.75532        0.54167
O         -1.88037       -8.53246       -0.63230
C         -1.72421       -8.10274       -1.90516
O         -1.31812       -7.01426       -2.27838
C         -2.20078       -9.15819       -2.86888
C         -1.60777      -10.54650       -2.62670
C         -2.02952      -11.25747       -1.33209
C         -3.53712      -11.29795       -1.06900
C         -4.34547      -12.01246       -2.15084
C         -3.92196      -13.46032       -2.33835
O          0.64827       -8.55631        0.96757
C          1.04833       -9.28645       -0.10474
O          1.09178       -8.89234       -1.26060
C          1.41538      -10.69174        0.30472
C          2.91691      -10.87309        0.47311
C          3.49770      -10.16878        1.70214
C          2.98337      -10.68029        3.05256
C          3.25067      -12.16001        3.34155
C          4.72821      -12.52098        3.32676
H          0.59216        0.60206        0.81029
H          0.89957        1.67898       -0.55389
H          2.24374        0.79158        0.18899
H         -0.10199       -0.46724       -1.32835
H          1.48990       -0.18931       -2.01073
H          1.31026       -2.52216       -1.32090
H          2.54673       -1.70461       -0.39685
H          1.24354       -3.18520        1.03926
H          1.11203       -1.54143        1.57550
H         -1.04627       -2.77688        1.68187
H         -1.12588       -1.28748        0.75883
H         -2.39498       -2.81672       -0.45711
H         -0.92400       -2.72502       -1.40464
H          0.56685       -6.56750       -1.20296
H          1.57176       -6.24512        0.14440
H         -0.13250       -6.87008        1.76931
H         -1.83550       -8.45007        1.35828
H         -2.32819       -6.96479        0.67215
H         -3.29461       -9.16111       -2.86321
H         -1.89469       -8.83135       -3.87108
H         -1.87947      -11.18116       -3.47806
H         -0.51374      -10.47877       -2.64007
H         -1.62492      -12.27541       -1.34841
H         -1.54146      -10.79516       -0.46854
H         -3.70740      -11.79507       -0.10598
H         -3.92813      -10.28063       -0.94820
H         -5.40446      -11.98511       -1.86925
H         -4.26320      -11.48015       -3.10479
H         -3.96219      -14.00378       -1.38907
H         -4.58608      -13.95937       -3.04929
H         -2.90386      -13.53177       -2.73298
H          0.85128      -10.98300        1.19648
H          1.05690      -11.35519       -0.49283
H          3.14408      -11.94435        0.51762
H          3.42867      -10.48977       -0.41852
H          4.58953      -10.25991        1.67125
H          3.28962       -9.09428        1.63566
H          3.44800      -10.07910        3.84404
H          1.90577      -10.49666        3.13287
H          2.84508      -12.39557        4.33303
H          2.71081      -12.79412        2.62983
H          5.29697      -11.87452        4.00261
H          4.86685      -13.55700        3.65165
H          5.15239      -12.43063        2.32235
