20

C          0.59343       -0.14280        0.00175
C          0.60021        1.13717        0.81322
C          1.02199        2.35904        0.02212
O          0.20279        3.13998       -0.45734
C          2.46584        2.66554       -0.10602
C          2.90354        3.94868        0.23938
C          4.25502        4.27695        0.12466
C          5.16408        3.33125       -0.34991
C          4.72411        2.05863       -0.71426
C          3.37420        1.72307       -0.59382
H          0.30906        0.03332       -1.04005
H         -0.10523       -0.86456        0.43665
H          1.58071       -0.61443        0.01144
H         -0.41613        1.33607        1.17681
H          1.22730        1.03760        1.70575
H          2.19355        4.69217        0.59551
H          4.59744        5.27228        0.39672
H          6.21548        3.59066       -0.44888
H          5.43174        1.33133       -1.10528
H          3.05051        0.74122       -0.91985
