24

O          1.43072        0.32201       -0.28226
C          2.63228        0.15631       -0.09830
C          3.39385       -1.01844       -0.66204
C          3.68000       -2.08169        0.38249
C          4.72637       -1.64732        1.40741
C          4.24198       -0.53882        2.34021
C          4.22194        0.84151        1.73041
C          4.96515        1.86837        2.33723
C          4.89833        3.18180        1.86394
C          4.07494        3.49730        0.78637
C          3.32804        2.49542        0.17159
C          3.41460        1.17467        0.63175
H          4.31606       -0.66162       -1.13542
H          2.78378       -1.44847       -1.46570
H          2.75458       -2.37045        0.89553
H          4.05226       -2.97778       -0.12867
H          4.96966       -2.52382        2.02120
H          5.65343       -1.34981        0.90215
H          4.90573       -0.53265        3.21469
H          3.24252       -0.76932        2.73043
H          5.59499        1.65732        3.19975
H          5.47853        3.96292        2.34980
H          4.01151        4.52167        0.42837
H          2.68029        2.74081       -0.66760
