29

O          1.20610        0.04337       -0.00054
C          2.43230        0.12327        0.00988
N          3.17492       -0.71386        0.82315
C          4.56921       -0.72034        1.03895
C          5.19735       -1.97110        0.96669
C          6.59220       -2.05991        0.95134
C          7.36093       -0.89395        1.05511
N          8.82300       -0.97292        0.95848
O          9.33229       -2.09807        0.86503
O          9.45764        0.09067        0.96607
C          6.74817        0.34684        1.25178
C          5.35364        0.42694        1.26615
Cl         4.66714        1.94353        1.73453
C          3.09287        1.02877       -0.95972
C          2.70089        2.37306       -0.95413
C          3.36949        3.28648       -1.76674
Cl         2.93146        4.94907       -1.72132
C          4.40631        2.86961       -2.60195
C          4.75450        1.51990       -2.65560
C          4.08134        0.59836       -1.85671
O          4.44200       -0.70935       -2.02663
H          2.63683       -1.51037        1.14843
H          4.61447       -2.88071        0.83500
H          7.05980       -3.03505        0.82460
H          7.34051        1.24797        1.39887
H          1.90838        2.70670       -0.28819
H          4.93780        3.58706       -3.22213
H          5.54326        1.18659       -3.32571
H          3.74836       -1.27846       -1.64975
