21

C          2.49369       -0.07527       -0.05985
C          0.99073        0.00187       -0.04102
C          0.26332       -1.20371       -0.02314
C         -1.14218       -1.18521       -0.00290
N         -1.84070       -2.45260        0.10537
O         -1.51032       -3.34470       -0.68402
O         -2.66208       -2.55731        1.02321
C         -1.83307        0.02566       -0.00669
N         -3.28073        0.06790       -0.08301
O         -3.80969       -0.59562       -0.98149
O         -3.86146        0.81538        0.71194
C         -1.13684        1.24024       -0.00403
C          0.26666        1.21139       -0.00571
N          0.95397        2.49464        0.02633
O          0.71142        3.27757       -0.89879
O          1.70280        2.70797        0.98769
H          2.86635       -0.34135        0.93424
H          2.82048       -0.83652       -0.77693
H          2.96031        0.86244       -0.37268
H          0.79661       -2.15605       -0.01568
H         -1.67150        2.19012       -0.00467
