45

C          0.92950       -0.08871        0.03486
O          0.27995        1.02201        0.64137
C          0.84078        1.49117        1.79586
C         -0.02653        2.20591        2.62120
C          0.42687        2.74146        3.82728
C          1.76280        2.57801        4.21750
C          2.17192        3.13861        5.53806
O          1.45100        3.98433        6.07190
C          3.42622        2.67679        6.22490
C          3.70217        1.19724        6.29095
O          4.74244        0.74149        5.81071
C          2.77468        0.26720        7.00090
C          3.31100       -0.91311        7.52520
C          2.48832       -1.84945        8.16199
C          1.10040       -1.65018        8.27301
C          0.21352       -2.70375        8.95844
C          0.40004       -4.07788        8.27880
C          0.61179       -2.81054       10.44469
C         -1.29643       -2.37593        8.90536
C          0.58208       -0.45746        7.74752
C          1.40613        0.49517        7.13339
C          2.64169        1.89377        3.37394
C          2.17779        1.34619        2.16934
H          0.31882       -0.40546       -0.81626
H          0.99728       -0.93078        0.73194
H          1.91539        0.18486       -0.35255
H         -1.06565        2.33826        2.32896
H         -0.27318        3.28287        4.46149
H          4.27146        3.17183        5.73100
H          3.41672        3.04702        7.25775
H          4.37827       -1.11482        7.44578
H          2.95426       -2.74571        8.56705
H          1.42531       -4.45213        8.37018
H         -0.25559       -4.83281        8.72849
H          0.16266       -4.02440        7.20959
H          0.52148       -1.84028       10.94766
H         -0.03002       -3.52267       10.97605
H          1.64578       -3.15047       10.57025
H         -1.52496       -1.43384        9.41719
H         -1.65466       -2.29877        7.87187
H         -1.88864       -3.15742        9.39606
H         -0.48072       -0.23280        7.79450
H          0.91971        1.38595        6.75649
H          3.69482        1.77671        3.61670
H          2.89135        0.82844        1.53606
