24

C          0.75628       -0.17668        0.51710
C          0.40946       -1.29133       -0.48468
C          1.14107       -2.56980       -0.04418
C         -1.11389       -1.42763       -0.68675
C         -1.77267       -2.58698       -0.51262
C         -3.17531       -2.85401       -0.70244
C         -4.18775       -2.00025       -0.52657
C         -4.07566       -0.55777       -0.22340
O         -4.94786       -0.01944        0.45514
C         -3.00993        0.23730       -0.91536
O         -3.38926        1.51349       -1.32095
C         -1.76093       -0.20091       -1.14543
H          0.28817       -0.35618        1.49090
H          0.42988        0.80561        0.15940
H          1.83983       -0.11255        0.66793
H          0.84054       -1.01143       -1.45657
H          0.79528       -2.91125        0.93828
H          0.99998       -3.38073       -0.76651
H          2.21973       -2.39131        0.03066
H         -1.22861       -3.47765       -0.20381
H         -3.42017       -3.89496       -0.91023
H         -5.21254       -2.35501       -0.57681
H         -2.60335        2.00462       -1.60572
H         -1.09180        0.46124       -1.69303
