12

C          0.91341       -0.01037        0.02910
C          0.49161        0.64877        1.32981
S          0.94951        2.41046        1.39796
C          2.74877        2.25562        1.51537
H          0.50239        0.51435       -0.83982
H          0.54266       -1.04051       -0.00074
H          2.00186       -0.05479       -0.07197
H         -0.59718        0.58928        1.42745
H          0.92412        0.12559        2.18860
H          3.02526        1.59394        2.34024
H          3.16650        1.87760        0.57936
H          3.17868        3.24278        1.70569
