32

O          0.93366        0.44767        0.15686
C          1.94573       -0.19016        0.39684
O          2.91032        0.15074        1.30870
C          4.07381        0.86513        0.79059
C          5.43081        0.10250        0.93370
C          5.40476       -1.28675        0.30285
C          4.32149       -1.42758       -1.11762
C          3.23823       -3.11934       -1.34729
C          3.49129       -4.45651       -0.17133
C          4.65431       -4.20712        1.13099
C          5.57067       -2.69452        1.36093
C          2.32649       -1.37955       -0.39096
C          3.59664       -2.38406        0.35728
C          5.06044       -3.13839       -0.81597
C          4.96049       -2.84094       -2.59179
C          3.60310       -1.88545       -3.20036
C          2.35449       -1.18821       -2.14016
O          1.49859       -0.28771       -2.73071
H          3.89985        1.16861       -0.24871
H          4.14378        1.79220        1.37083
H          6.23182        0.68452        0.46740
H          5.66416       -0.01299        1.99744
H          4.33614       -0.49463       -1.70877
H          2.49390       -3.39869       -2.11103
H          2.93447       -5.38281       -0.26449
H          4.77987       -4.99914        1.86923
H          6.12282       -2.58096        2.29465
H          3.47598       -2.38648        1.45421
H          5.96102       -3.71242       -0.55206
H          5.72835       -3.22188       -3.25631
H          3.55628       -1.65679       -4.26394
H          0.92826        0.07205       -2.01956
