40

C          0.85622       -0.06592        0.31220
C          0.14095        0.89423       -0.29175
C         -1.38028        0.98287       -0.41163
C         -1.77442        2.32934        0.23040
C         -1.78374        0.94852       -1.91068
C         -1.20654       -0.18815       -2.77394
C         -1.61199       -1.58302       -2.38435
C         -2.39053       -2.42319       -3.09479
C         -2.65189       -3.83115       -2.63229
C         -3.04599       -2.04599       -4.39358
O         -1.95492       -0.11369        0.34542
C         -3.30167       -0.20986        0.50355
O         -4.13644        0.53843        0.01090
C         -3.68039       -1.38194        1.39022
C         -3.40408       -2.70239        0.68942
C         -2.99242       -1.30988        2.74758
H          0.38675       -0.91591        0.79609
H          1.94118       -0.02090        0.32506
H          0.69328        1.70811       -0.76212
H         -1.23456        3.16932       -0.22300
H         -2.84103        2.54501        0.12130
H         -1.56316        2.32636        1.30667
H         -2.87412        0.92625       -2.01288
H         -1.46131        1.89072       -2.37656
H         -1.48966        0.01270       -3.81393
H         -0.11101       -0.14167       -2.77080
H         -1.16573       -1.94289       -1.45871
H         -3.72005       -3.97324       -2.43670
H         -2.34161       -4.54772       -3.39935
H         -2.10728       -4.07540       -1.71457
H         -3.52256       -1.06276       -4.32849
H         -2.30875       -2.03867       -5.20257
H         -3.83013       -2.76189       -4.66268
H         -4.76244       -1.30801        1.56001
H         -2.33258       -2.85120        0.52121
H         -3.77240       -3.54593        1.28199
H         -3.90773       -2.72934       -0.28136
H         -3.21191       -0.35830        3.24300
H         -3.33981       -2.11943        3.39852
H         -1.90435       -1.39446        2.65665
