28

C          2.28755        0.76565        0.85829
C          2.42033       -0.19957       -0.07321
C          1.25333       -0.07738       -1.04739
C          1.22192        1.47183       -1.00479
C          1.05321        1.59123        0.51766
C         -0.18468        0.72728        0.91952
C         -1.77087        1.27780        0.69985
C         -1.71809        0.71302       -0.57839
C         -1.89159       -0.92818        0.53378
C         -1.64651       -0.93845       -0.81934
C         -2.96688        0.18851        0.11900
C          0.04666       -0.64150       -0.22919
H          2.92852        0.92292        1.71252
H          3.17860       -0.96764       -0.10220
H          1.43036       -0.52423       -2.02547
H          0.46168        1.98826       -1.59308
H          2.17059        1.90917       -1.35670
H          1.07250        2.60995        0.90555
H         -0.07162        0.38008        1.95687
H         -1.96779        2.34812        0.69215
H         -2.41809        1.18581       -1.35893
H         -0.86968        0.88567       -1.23569
H         -2.70492       -1.70471        0.59672
H         -1.20590       -1.15224        1.35991
H         -1.90123       -1.93270       -1.19853
H         -3.78233        0.52060       -0.58898
H         -3.61577       -0.14971        0.98347
H          0.37595       -1.54543        0.31518
