28

C          1.76869        1.98442       -0.00189
C          0.83475        0.80631        0.00140
C         -0.54381        1.06501        0.00545
C         -1.48175        0.02959        0.00814
O         -2.78293        0.44643        0.01075
C         -1.07684       -1.30945        0.00923
C         -2.03949       -2.48808        0.02028
C         -1.88821       -3.35214       -1.23664
C         -1.87793       -3.33623        1.28672
C          0.31221       -1.55955        0.00457
C          1.27018       -0.52730        0.00026
C          2.72980       -0.88979       -0.00372
H          1.59634        2.59416       -0.89514
H          1.59645        2.59900        0.88809
H          2.82241        1.69528       -0.00085
H         -0.90121        2.09326        0.00584
H         -3.38011       -0.31117       -0.03711
H         -3.07401       -2.13554        0.02330
H         -0.90643       -3.83442       -1.29146
H         -2.64531       -4.14384       -1.25141
H         -2.01634       -2.74933       -2.14262
H         -2.00018       -2.72202        2.18585
H         -2.63426       -4.12824        1.31703
H         -0.89526       -3.81674        1.34042
H          0.66452       -2.59040        0.00573
H          3.21743       -0.49230       -0.89955
H          3.22166       -0.49442        0.89075
H          2.87704       -1.97511       -0.00543
