8

C          0.01569        1.07464        0.00228
N          1.16665        0.33903        0.00608
C          0.72432       -0.89642        0.00409
N         -0.63460       -0.89229       -0.00133
N         -1.11401        0.36207       -0.00234
H          0.00164        2.15716        0.00301
H          1.31799       -1.79911        0.00639
H         -1.28003       -1.67383       -0.00431
