52

C          0.79613        0.15047        0.04598
C         -0.00841       -0.43585        0.94691
C         -1.48249       -0.59981        0.78060
C          0.60489       -0.93274        2.20255
O          1.49541       -0.35577        2.80521
O          0.06240       -2.13835        2.50119
C          0.65440       -2.86797        3.58688
C          1.63916       -3.90546        3.04385
C          2.88792       -3.30563        2.38843
C          3.79391       -2.54140        3.36040
C          4.56278       -3.43409        4.33827
C          5.54716       -4.40111        3.67512
C          6.54108       -3.73803        2.71737
C          7.48226       -2.72817        3.38405
C          8.54319       -3.36768        4.28640
C          9.55438       -4.24486        3.54533
O         10.39443       -3.43201        2.71130
C         10.05806       -3.34218        1.40034
O          9.14434       -3.92325        0.83750
C         10.89625       -2.31190        0.73566
C         12.20733       -2.22369        1.01146
C         10.18818       -1.43484       -0.24746
H          0.40986        0.53679       -0.89115
H          1.86540        0.24901        0.21892
H         -1.74068       -1.65176        0.62317
H         -2.00681       -0.24208        1.67317
H         -1.85862       -0.02854       -0.07396
H          1.10414       -2.20641        4.33417
H         -0.16500       -3.39053        4.09219
H          1.93048       -4.58908        3.84821
H          1.12503       -4.50824        2.28454
H          3.45000       -4.10888        1.89935
H          2.59044       -2.63441        1.57553
H          4.49492       -1.93055        2.78068
H          3.21393       -1.82307        3.94575
H          5.10384       -2.79153        5.04265
H          3.85885       -4.01035        4.94911
H          6.08886       -4.94491        4.45708
H          4.98862       -5.16475        3.12138
H          7.11108       -4.52927        2.22326
H          6.00124       -3.23360        1.90816
H          7.97164       -2.13005        2.60774
H          6.90543       -2.00744        3.97426
H          9.08691       -2.55509        4.78458
H          8.05862       -3.95466        5.07375
H         10.21420       -4.71858        4.28026
H          9.08157       -5.05964        2.98764
H         12.83579       -1.48278        0.52940
H         12.68616       -2.89131        1.72224
H          9.65648       -2.02904       -0.99741
H          9.46019       -0.80044        0.27023
H         10.88383       -0.77740       -0.77936
