26

C          0.98029        0.02166        0.03002
C          0.28060        0.81650        0.84731
C         -1.16056        0.80180        0.91747
C         -1.84937        1.62099        1.72601
C         -3.35098        1.63560        1.83836
C         -3.86391        1.20062        3.21962
C         -3.45648        2.13532        4.32739
C         -4.31195        2.87991        5.04472
C         -3.88032        3.81865        6.13465
C         -4.31981        5.24426        5.83864
H          0.50157       -0.68477       -0.64007
H          2.06477        0.06676        0.01631
H          0.81499        1.50680        1.49694
H         -1.68908        0.08910        0.28799
H         -1.31712        2.34227        2.34266
H         -3.70724        2.64792        1.61025
H         -3.79153        0.97417        1.08174
H         -4.95781        1.12647        3.17422
H         -3.49411        0.19534        3.45633
H         -2.39196        2.18676        4.54752
H         -5.38003        2.82122        4.84520
H         -4.31933        3.48939        7.08296
H         -2.79128        3.79891        6.26062
H         -5.41137        5.31804        5.78614
H         -3.97364        5.91879        6.62819
H         -3.90821        5.59699        4.88677
