30

O          1.11802       -0.00512       -0.18834
S          2.54719        0.11274        0.00169
O          3.16557       -0.12377        1.28602
O          3.20892       -0.92516       -1.04225
C          3.04705        1.71869       -0.54946
C          4.21584        1.87233       -1.29574
C          4.58549        3.14839       -1.73465
C          3.79853        4.27409       -1.44665
N          4.24771        5.52459       -1.92936
N          3.34441        6.38689       -1.96082
C          3.81026        7.60044       -2.50523
C          3.74743        8.76859       -1.73841
C          4.12312        9.99798       -2.28851
C          4.55297       10.06209       -3.61091
O          4.88967       11.28575       -4.10928
C          4.62524        8.91700       -4.39559
C          4.25140        7.69807       -3.83690
O          4.31635        6.58923       -4.64089
C          2.62610        4.09048       -0.69244
C          2.24380        2.81999       -0.25003
H          2.73090       -1.77674       -0.95849
H          4.84467        1.01727       -1.53310
H          5.50163        3.26891       -2.30994
H          3.39656        8.72378       -0.71097
H          4.06943       10.90441       -1.69133
H          5.13493       11.18297       -5.04420
H          4.95563        8.95133       -5.42779
H          4.07758        5.83424       -4.06810
H          1.99661        4.94162       -0.44203
H          1.32769        2.70116        0.32510
