40

C          0.26600       -0.36265        0.65755
N         -0.25167       -1.29395       -0.33474
C         -1.66537       -1.05722       -0.60273
C          0.56930       -1.41073       -1.54862
C          0.64654       -0.21512       -2.51586
C          1.66975        0.86053       -2.12771
N          2.92409        0.82133       -2.95285
C          3.73866       -0.28469       -2.54326
C          3.60219       -1.50955       -3.21805
C          4.35801       -2.62230       -2.84530
C          5.27299       -2.52179       -1.80176
C          5.45136       -1.30264       -1.14700
C          4.70476       -0.17769       -1.52326
S          5.02764        1.36915       -0.69087
C          4.43838        2.51986       -1.92309
C          4.92378        3.83375       -1.89776
C          4.48241        4.76976       -2.83439
C          3.55088        4.40182       -3.80294
C          3.05346        3.09849       -3.83075
C          3.48374        2.14733       -2.89030
H         -0.26433       -0.48776        1.60838
H          0.15330        0.68167        0.34876
H          1.32357       -0.55827        0.86614
H         -1.85897       -0.04993       -0.98584
H         -2.05425       -1.78453       -1.32369
H         -2.25153       -1.18452        0.31452
H          1.57609       -1.72448       -1.25251
H          0.17369       -2.26301       -2.11769
H          0.85413       -0.58554       -3.52704
H         -0.34245        0.25122       -2.59177
H          1.15849        1.81982       -2.29593
H          1.91099        0.83589       -1.06015
H          2.90617       -1.59501       -4.04794
H          4.23351       -3.56409       -3.37330
H          5.86143       -3.38721       -1.50735
H          6.18694       -1.23266       -0.34946
H          5.65284        4.13545       -1.14936
H          4.87013        5.78524       -2.81011
H          3.21367        5.12720       -4.53832
H          2.33300        2.81371       -4.59327
