26

N          1.00010        0.06252       -0.07805
C          2.26107        0.06252       -0.07805
C          3.78107        0.06252       -0.07805
C          4.22960       -1.26228        0.56163
C          3.72397       -2.49995        0.10539
C          4.08949       -3.69846        0.71742
C          4.95251       -3.68257        1.80732
C          5.45617       -2.47054        2.27862
C          5.10410       -1.26750        1.65820
C          4.36183        0.37084       -1.45888
C          4.97695       -0.59332       -2.27849
C          5.46792       -0.26107       -3.54420
C          5.36458        1.04247       -4.01373
C          4.77010        2.01763       -3.21750
C          4.27150        1.68510       -1.95430
H          4.10016        0.87319        0.59253
H          3.03102       -2.54152       -0.73518
H          3.68986       -4.64027        0.34885
H          5.22656       -4.61488        2.29463
H          6.11929       -2.46360        3.14014
H          5.50368       -0.33735        2.05630
H          5.09530       -1.62448       -1.95829
H          5.93178       -1.02737       -4.16172
H          5.74664        1.29812       -4.99858
H          4.69042        3.03801       -3.58276
H          3.80605        2.46994       -1.35942
