28

C          0.90332       -0.41049       -0.21468
N          0.30534       -1.68147        0.10811
C         -0.53021       -1.97069        1.15643
O         -0.97400       -3.10697        1.29313
O         -0.77412       -0.89399        1.96973
N         -1.62845       -1.22430        3.02893
C         -1.78584       -0.25115        3.88407
C         -1.19075        1.15998        3.92617
C         -0.22792        1.55877        2.81517
S         -2.57247        2.36202        3.98576
C         -1.58253        3.69840        4.70315
C         -0.68531        3.13093        5.80666
C         -1.30921        3.30448        7.18710
S         -0.30598        1.35667        5.52571
H          0.65982        0.35988        0.51286
H          0.54258       -0.10033       -1.19818
H          1.98770       -0.53929       -0.25196
H          0.48133       -2.47473       -0.49361
H         -2.46661       -0.49532        4.72203
H          0.62804        0.87531        2.77037
H         -0.73022        1.54985        1.84094
H          0.19861        2.55992        2.93525
H         -2.23730        4.49467        5.07028
H         -0.97516        4.14228        3.90713
H          0.26862        3.67091        5.79912
H         -0.66608        2.89286        7.97253
H         -1.44204        4.37055        7.40468
H         -2.29249        2.82751        7.25644
