35

C          1.60047        0.27600        0.22957
C          0.94612       -0.84848       -0.58604
C          1.52344       -2.20150       -0.14884
C         -0.56732       -0.81614       -0.33743
C          1.26165       -0.65745       -2.07380
O          2.15610        0.05851       -2.50374
O          0.47050       -1.45703       -2.83505
C          0.80633       -1.51748       -4.22238
O          0.29213       -0.45368       -5.00896
C         -1.03807       -0.18428       -5.12441
C         -1.23540        0.97182       -5.90525
C         -2.50505        1.50095       -6.14235
C         -3.61812        0.88248       -5.59489
C         -3.45211       -0.27189       -4.83257
C         -2.16992       -0.81835       -4.59573
C         -2.17734       -2.09298       -3.84277
N         -2.85598       -2.07958       -2.65412
O         -1.66254       -3.11637       -4.27001
H          1.40544        0.15290        1.30109
H          1.21662        1.25721       -0.07216
H          2.68746        0.29128        0.09108
H          1.33351       -2.39148        0.91295
H          1.08229       -3.02714       -0.71980
H          2.60637       -2.24019       -0.31353
H         -1.03376        0.04490       -0.82935
H         -1.04916       -1.72034       -0.72084
H         -0.79659       -0.76240        0.73260
H          1.89791       -1.50563       -4.33927
H          0.50785       -2.48164       -4.64065
H         -0.37019        1.47305       -6.33879
H         -2.61627        2.39140       -6.75568
H         -4.61238        1.28262       -5.77494
H         -4.33927       -0.76953       -4.44440
H         -2.83326       -2.92350       -2.09696
H         -3.19139       -1.22673       -2.22786
