16

C          1.04283       -0.04075        0.01481
C          0.57042       -1.42395       -0.38755
C          1.06085       -2.49981        0.56221
O          0.25959       -3.19273        1.19323
C          2.55457       -2.70804        0.72183
C          3.22377       -3.10398       -0.57959
H          0.76400        0.18422        1.04946
H          0.59507        0.71755       -0.63500
H          2.13048        0.04928       -0.06638
H         -0.52563       -1.44539       -0.38420
H          0.89049       -1.66870       -1.40470
H          3.00260       -1.79905        1.13408
H          2.70704       -3.50259        1.46159
H          3.17447       -2.29606       -1.31614
H          4.27942       -3.33659       -0.40852
H          2.74325       -3.98563       -1.01621
