19

C          1.05447       -0.14328        0.02428
C          0.55884        1.09551       -0.70725
N          1.10683        1.11464       -2.06083
C          0.59264        2.21530       -2.88323
C          1.08965        3.58492       -2.41638
C          1.03948        1.96799       -4.32592
H          0.73177       -1.05861       -0.48328
H          0.65461       -0.16398        1.04326
H          2.14767       -0.15470        0.09175
H         -0.53619        1.07420       -0.73707
H          0.86946        1.98130       -0.14377
H          2.12482        1.15264       -2.02251
H         -0.50412        2.20552       -2.86934
H          2.18344        3.61739       -2.36111
H          0.76690        4.36928       -3.10989
H          0.69098        3.84234       -1.43011
H          0.67085        1.00303       -4.69181
H          0.64642        2.74469       -4.99110
H          2.13183        1.97014       -4.41645
