35

C          0.83900        0.33010        0.27056
C          0.69984        0.39312       -1.24783
O          1.20023       -0.77929       -1.90582
C          2.55421       -0.81615       -2.08376
C          3.04929       -0.77838       -3.38351
C          4.41231       -0.99308       -3.61253
C          5.29054       -1.24330       -2.54902
O          6.59208       -1.45475       -2.92572
C          7.63944       -1.37933       -2.11603
N          8.78435       -0.81795       -2.44009
C          9.58926       -1.10898       -1.37427
C         10.92441       -0.77159       -1.12022
C         11.50482       -1.22701        0.07236
C         10.76696       -1.99708        0.98049
Cl        11.52965       -2.53433        2.43036
C          9.43107       -2.34599        0.74523
C          8.89507       -1.87491       -0.44829
O          7.63086       -2.07252       -0.93641
C          4.78772       -1.27949       -1.25107
C          3.41894       -1.08714       -1.02483
C         -0.79113        0.49438       -1.55643
O         -1.39179        1.51209       -1.86660
O         -1.46856       -0.66078       -1.37701
H          0.68955       -0.69208        0.63620
H          0.12256        0.98524        0.77715
H          1.83954        0.64745        0.57976
H          1.17266        1.29616       -1.65614
H          2.37999       -0.61414       -4.22359
H          4.79218       -0.97941       -4.63233
H         11.48703       -0.17819       -1.83286
H         12.54252       -0.97603        0.28374
H          8.85286       -2.94395        1.43767
H          5.41569       -1.49614       -0.39436
H          3.03834       -1.20433       -0.01587
H         -2.39940       -0.43717       -1.58176
