40

C          0.93813        0.23378        0.04979
C          0.38017       -0.64334        1.13354
C         -0.50212        0.01183        2.16216
C          0.64742       -1.96016        1.23204
C          1.55181       -2.77668        0.34480
C          2.85106       -3.20699        1.04517
C          2.65270       -4.24217        2.13025
C          2.78731       -5.60769        1.84819
C          2.59553       -6.56074        2.85234
C          2.24307       -6.15774        4.14589
C          2.07942       -4.80479        4.42974
C          2.30557       -3.84881        3.43143
C          1.64086       -4.36748        5.77026
O          1.46793       -3.17890        6.01148
C          1.40010       -5.38392        6.81336
C          0.95404       -4.98389        8.07970
C          0.74234       -5.93573        9.07824
C          0.97981       -7.28497        8.81750
C          1.41528       -7.68670        7.55331
C          1.61801       -6.73442        6.54622
C          2.04873       -7.17131        5.20238
O          2.23931       -8.35826        4.96658
H          0.58498        1.26602        0.13937
H          0.62355       -0.12731       -0.93519
H          2.03148        0.25724        0.09257
H         -1.44186       -0.53841        2.27773
H          0.00900        0.04514        3.13060
H         -0.75884        1.03958        1.88810
H          0.17899       -2.51592        2.04437
H          0.99739       -3.65721       -0.00189
H          1.82072       -2.21008       -0.55365
H          3.53656       -3.61709        0.29180
H          3.36700       -2.33401        1.46624
H          3.04776       -5.94048        0.84492
H          2.71501       -7.61763        2.61947
H          2.19244       -2.79016        3.66516
H          0.76970       -3.93188        8.29125
H          0.39454       -5.62342       10.06053
H          0.82220       -8.02613        9.59802
H          1.59326       -8.74248        7.35606
