39

C          0.83981        0.27229        0.56359
O          0.13126       -0.95866        0.58593
C          0.79847       -2.02210       -0.08464
C          0.43129       -2.12835       -1.56366
C          1.08247       -1.10633       -2.49949
N          2.53101       -1.12674       -2.36135
C          3.24213       -0.89602       -3.53418
N          2.82024       -0.02554       -4.44092
C          3.54140        0.05081       -5.55340
N          3.06126        0.89473       -6.52370
C          3.81888        1.21538       -7.71753
C          2.91921        0.98763       -8.93088
C          4.28920        2.66586       -7.66018
N          4.63186       -0.66457       -5.77669
C          4.98032       -1.49004       -4.80068
S          6.43137       -2.48105       -5.08502
C          6.32555       -3.61490       -3.67751
N          4.32122       -1.64733       -3.66168
H          0.50636        0.86814        1.41779
H          0.59755        0.82757       -0.34411
H          1.92144        0.12910        0.64621
H          1.88058       -1.99042        0.08521
H          0.44803       -2.94037        0.40185
H          0.71878       -3.13021       -1.90884
H         -0.65695       -2.04930       -1.67275
H          0.77303       -1.36770       -3.52051
H          0.70512       -0.09864       -2.30445
H          2.92071       -1.99214       -2.00103
H          2.36243        1.53803       -6.18013
H          4.69998        0.57412       -7.83715
H          2.02940        1.62609       -8.89655
H          3.45661        1.19952       -9.86102
H          2.57780       -0.05311       -8.96788
H          4.93659        2.83268       -6.79270
H          4.85755        2.92438       -8.56037
H          3.44440        3.35942       -7.58326
H          6.42448       -3.07199       -2.73310
H          5.37901       -4.16355       -3.68828
H          7.14064       -4.34063       -3.74126
