16

O          1.09577       -0.37400        0.38200
C          2.16759        0.01482       -0.06320
C          2.94834        1.07565        0.60409
C          4.14972        1.50324        0.02777
C          4.89915        2.50641        0.64596
C          4.45175        3.08017        1.83815
C          3.24685        2.64437        2.41039
N          2.78143        3.24665        3.66624
O          3.47575        4.14401        4.16471
O          1.72503        2.82240        4.15351
C          2.48715        1.64123        1.79706
H          2.59670       -0.41199       -0.98524
H          4.51113        1.06580       -0.90049
H          5.83324        2.84245        0.19949
H          5.04934        3.86052        2.30688
H          1.54999        1.29555        2.23126
