35

C          0.02492        0.15883       -1.02198
C         -0.76778       -0.61730       -2.06501
C         -0.06691       -1.89564       -2.53254
C          0.07590       -2.96517       -1.45237
N         -1.17742       -3.60576       -1.12213
C         -1.51584       -4.33394       -0.02549
O         -2.66918       -4.73013        0.09177
N         -0.64233       -4.53245        1.03891
S          0.86317       -5.25065        0.96983
O          0.97341       -6.08109        2.14930
O          1.08435       -5.78277       -0.35541
C          1.95311       -3.87115        1.21600
C          1.65082       -2.92406        2.19728
C          2.41687       -1.76016        2.28546
C          3.45439       -1.51739        1.37969
N          4.26705       -0.38961        1.53077
C          3.80316       -2.51939        0.46758
C          3.04456       -3.68822        0.36504
H          0.07281       -0.37854       -0.07057
H         -0.45169        1.12567       -0.83087
H          1.04764        0.34864       -1.36361
H         -1.76381       -0.84904       -1.67209
H         -0.91376        0.03110       -2.93733
H         -0.61842       -2.30935       -3.38558
H          0.93328       -1.63387       -2.89979
H          0.74693       -3.74459       -1.82272
H          0.50278       -2.53818       -0.54715
H         -1.91859       -3.59046       -1.81119
H         -1.13632       -4.94904        1.82702
H          0.82090       -3.07449        2.88275
H          2.18500       -1.03236        3.05921
H          4.77132       -0.12664        0.68964
H          3.79847        0.40325        1.95876
H          4.66230       -2.38781       -0.18583
H          3.30088       -4.43417       -0.38407
