27

C          0.85276       -0.10106        0.09378
C          0.38087        1.17671        0.77196
C          0.87631        2.45078        0.08496
C          0.41790        2.63637       -1.36540
C         -1.08774        2.89526       -1.55564
N         -1.45275        4.22093       -1.04605
C         -2.76912        4.63017       -1.07151
C         -3.00872        5.93369       -0.35949
O         -3.66257        4.01179       -1.63853
C         -1.36628        2.72712       -3.05893
O         -1.44988        1.65689       -3.64685
O         -1.34041        3.87755       -3.76569
H          0.38614       -0.22961       -0.88721
H          0.58644       -0.97087        0.70275
H          1.93986       -0.10037       -0.03644
H         -0.71190        1.17568        0.83905
H          0.75705        1.17767        1.80242
H          0.57516        3.31600        0.68616
H          1.97404        2.44438        0.09409
H          0.97448        3.48510       -1.78691
H          0.72815        1.76525       -1.95484
H         -1.70442        2.15910       -1.02822
H         -0.85286        4.65108       -0.35601
H         -2.57406        6.75579       -0.93418
H         -4.08477        6.09939       -0.25410
H         -2.56529        5.90430        0.63974
H         -1.52115        3.58738       -4.68290
