52

C          1.13085       -0.09060        0.07162
C          0.59820        1.30755        0.21946
C          1.45052        2.38697       -0.05068
C          1.02111        3.71588        0.05275
N          1.97353        4.71042       -0.24614
C          1.61043        5.95473       -0.18737
C          2.59998        7.05042       -0.47388
O          3.78629        6.83711       -0.66338
N          2.04719        8.29509       -0.47609
C          0.76256        8.60791       -0.14340
O          0.43014        9.78397       -0.10269
N         -0.12028        7.61361        0.17072
C          0.20709        6.35603        0.17447
N         -0.69826        5.36433        0.52829
C         -2.01982        5.75269        1.03249
C         -1.94764        6.31688        2.48437
O         -1.44680        7.65633        2.53689
C         -3.37844        6.26688        3.04163
O         -3.62784        4.89013        3.36808
C         -3.75067        7.19476        4.21973
O         -3.32594        8.54394        4.01052
C         -5.28466        7.24825        4.39778
O         -5.85040        5.96620        4.60050
P         -6.84026        5.35785        3.50570
O         -8.04511        6.14600        3.14126
O         -7.09095        3.87900        4.04070
O         -5.92879        5.03045        2.22537
C         -0.30400        4.01034        0.44984
C         -1.15157        2.91739        0.71556
C         -0.72704        1.57491        0.58946
C         -1.73428        0.48853        0.86838
H          0.68265       -0.57437       -0.80196
H          0.92055       -0.68169        0.96870
H          2.21795       -0.09335       -0.06229
H          2.48101        2.20465       -0.35159
H          2.66121        9.07920       -0.63442
H         -2.43701        6.52501        0.37133
H         -2.74069        4.93513        0.96900
H         -1.28161        5.69056        3.09038
H         -1.07236        7.88278        1.65949
H         -4.03745        6.56343        2.21503
H         -4.40602        4.63441        2.83131
H         -3.29223        6.82205        5.14268
H         -2.41209        8.50285        3.64961
H         -5.52827        7.87091        5.26638
H         -5.74613        7.74690        3.53537
H         -6.25965        3.47759        4.35584
H         -6.51593        4.97076        1.44262
H         -2.18282        3.06180        1.02170
H         -2.04629        0.52718        1.91709
H         -2.61408        0.62171        0.22917
H         -1.34816       -0.51501        0.67218
