17

C          1.03627        0.08243       -0.00085
C          0.63821        0.14857       -1.47534
N          1.16518       -1.02018       -2.18720
C          0.23378       -1.58121       -3.17868
C          0.22731       -0.91048       -4.54968
N          2.43369       -0.91258       -2.52467
O          2.86795       -1.94516       -3.04071
H          0.68324       -0.85021        0.45474
H          0.58735        0.91308        0.55277
H          2.12185        0.13676        0.13119
H         -0.45829        0.17303       -1.50677
H          0.97857        1.09334       -1.92066
H          0.45245       -2.64880       -3.31230
H         -0.78757       -1.56324       -2.77566
H          1.17620       -1.06480       -5.07419
H         -0.56021       -1.35238       -5.17022
H          0.03793        0.16419       -4.47755
