29

O          1.35227       -0.29804        0.96494
P          2.70659        0.04086        0.41710
N          3.69540       -1.22442        0.15566
C          3.15363       -2.56186       -0.08223
C          3.26243       -3.05141       -1.52942
Cl         4.78875       -3.92153       -1.82839
C          5.14423       -1.16608        0.33664
C          5.94655       -0.72076       -0.89268
Cl         6.00949        1.04370       -1.08665
N          2.61875        0.83781       -1.00918
C          2.15751        2.21821       -0.92764
C          2.97375        3.02306        0.08376
C          2.95440        2.37259        1.46142
O          3.48640        1.06119        1.39010
H          3.57766       -3.29008        0.62070
H          2.08404       -2.54767        0.15801
H          2.45574       -3.75897       -1.74418
H          3.18576       -2.22874       -2.24753
H          5.39051       -0.52477        1.19123
H          5.51535       -2.15478        0.63495
H          6.98344       -1.05538       -0.78791
H          5.55364       -1.14219       -1.82045
H          2.02616        0.33849       -1.66052
H          1.09817        2.23752       -0.64656
H          2.24184        2.68451       -1.91477
H          2.57970        4.04287        0.14989
H          4.00898        3.09690       -0.26780
H          1.93816        2.33286        1.86867
H          3.57082        2.94948        2.15750
