19

C         -1.72765       -1.62395        0.00214
C         -0.50584       -0.74801        0.00084
C          0.75933       -1.35508       -0.00519
C          1.92010       -0.58525       -0.00454
C          1.83275        0.80597        0.00186
C          0.58208        1.44577        0.00683
C          0.51100        2.93866        0.01190
O         -0.47025        3.65636        0.00643
O          1.73771        3.50404        0.02365
C         -0.58426        0.65876        0.00539
O         -1.80334        1.28037        0.01009
H         -2.33364       -1.42776        0.89252
H         -2.32542       -1.44136       -0.89659
H         -1.46412       -2.68697        0.01227
H          0.85042       -2.43986       -0.00972
H          2.89444       -1.06805       -0.00870
H          2.75356        1.38482        0.00249
H          1.53126        4.46249        0.02585
H         -2.52533        0.63652       -0.01551
