51

C         -2.08218        0.15423        1.57173
N         -1.09356       -0.01988        0.40678
C         -1.96180       -0.23223       -0.84369
C         -0.24328       -1.27706        0.65893
C          1.25609       -1.07688        0.86953
C          1.96163        0.13855        0.27262
C          1.05816        1.13850       -0.43095
O          0.91496        1.02466       -1.86580
C          0.97435       -0.17564       -2.52107
O          1.10448       -1.23498       -1.94043
C          0.74652        0.00745       -4.07787
O          0.01107        1.24577       -4.24947
C          2.12161        0.20054       -4.73045
C          2.91045       -0.86937       -5.18396
C          4.21709       -0.66307       -5.64136
C          4.76374        0.61613       -5.65987
C          4.00198        1.69545       -5.23056
C          2.69988        1.48902       -4.76921
C         -0.14893       -1.13925       -4.61818
C         -1.29120       -0.88134       -5.40401
C         -2.17975       -1.90403       -5.75721
C         -1.92721       -3.21715       -5.37520
C         -0.77519       -3.51309       -4.65934
C          0.10010       -2.48878       -4.28936
C         -0.28674        1.28010        0.28566
H         -2.73890       -0.72081        1.60039
H         -1.51209        0.24568        2.49996
H         -2.66792        1.06199        1.39109
H         -1.36076       -0.08868       -1.73615
H         -2.37526       -1.24494       -0.82155
H         -2.77207        0.50315       -0.83802
H         -0.65011       -1.77159        1.55104
H         -0.42281       -1.97655       -0.16404
H          1.75919       -1.97866        0.49027
H          1.46321       -1.10045        1.94702
H          2.78780       -0.17446       -0.37696
H          2.44138        0.65783        1.11434
H          1.55940        2.11014       -0.32668
H         -0.89285        1.09818       -3.93588
H          2.54227       -1.89024       -5.18641
H          4.81263       -1.50824       -5.97960
H          5.78083        0.77090       -6.01124
H          4.42112        2.69863       -5.24826
H          2.13774        2.35689       -4.42633
H         -1.51828        0.12328       -5.75822
H         -3.06831       -1.67564       -6.34233
H         -2.61401       -4.01223       -5.65578
H         -0.55248       -4.54239       -4.38624
H          0.98609       -2.77666       -3.72472
H         -0.92935        2.01016       -0.22007
H         -0.10316        1.62973        1.30926
