8

F          0.89783       -0.05018        0.03157
C          2.25926        0.02409        0.00600
F          2.70031       -1.26357       -0.02686
Br         2.78166        0.91929       -1.65367
C          2.77226        0.75788        1.25003
F          2.35193        2.05272        1.27012
F          2.26314        0.18460        2.37777
Br         4.72400        0.71919        1.38423
