27

O          2.34067        0.10500        0.14642
C          0.97931        0.04303        0.16556
C          0.27301        1.23396        0.07369
C         -1.12178        1.20567        0.04242
C         -1.80933       -0.01047        0.10350
O         -3.16607        0.09839       -0.04079
C         -3.95246       -1.09543       -0.13210
C         -3.74163       -1.92393       -1.38510
C         -4.10566       -3.27937       -1.38065
C         -3.87049       -4.08155       -2.49867
C         -3.27716       -3.53737       -3.63573
C         -2.94232       -2.18574       -3.66568
C         -3.18887       -1.37963       -2.55359
C         -1.08666       -1.19683        0.24330
C          0.31170       -1.17318        0.26236
H          2.68960       -0.80082        0.12129
H          0.80265        2.17960        0.00553
H         -1.67605        2.13529       -0.05584
H         -3.80539       -1.69754        0.77356
H         -5.00102       -0.77412       -0.12631
H         -4.56122       -3.72336       -0.49812
H         -4.14256       -5.13359       -2.47965
H         -3.07738       -4.16519       -4.49983
H         -2.47947       -1.75760       -4.55101
H         -2.91351       -0.32747       -2.59466
H         -1.57679       -2.16264        0.30562
H          0.85442       -2.10969        0.33807
