32

C          0.92171        0.03602       -0.01326
C          0.12881        0.50562       -1.19474
O         -1.07239        0.31854       -1.32597
O          0.91738        1.22521       -2.03443
C          0.29547        1.58630       -3.26950
N          0.76854        0.68083       -4.30966
C          1.40843        1.03031       -5.47379
C          1.60445       -0.15172       -6.14918
C          2.17595       -0.46280       -7.42187
O          2.74903        0.36657       -8.11795
N          2.00965       -1.80530       -7.74590
C          2.47202       -2.25660       -9.03568
O          1.75545       -1.61194      -10.10453
C          0.49564       -1.91111      -10.48343
C         -0.31447       -2.81487       -9.60473
O          0.01167       -1.41102      -11.49444
C          1.54386       -2.72471       -6.81682
N          1.08570       -2.48460       -5.63019
C          1.08185       -1.13226       -5.31494
N          0.57222       -0.65623       -4.18908
H          0.57814       -0.95993        0.27877
H          0.79170        0.73906        0.81239
H          1.98299       -0.03992       -0.26755
H         -0.79914        1.55257       -3.26550
H          0.61464        2.60020       -3.53033
H          1.64327        2.05596       -5.72361
H          3.52505       -1.97385       -9.14367
H          2.41252       -3.34469       -9.14337
H         -0.67595       -2.26133       -8.73509
H         -1.18143       -3.16919      -10.17231
H          0.24379       -3.70323       -9.30897
H          1.57611       -3.77026       -7.16455
