50

C          1.09984       -0.22857        0.02146
C          0.57673       -1.63005       -0.32132
C          0.87910       -2.60079        0.82937
C         -0.94411       -1.55987       -0.52706
C          1.32960       -2.14328       -1.55254
O          2.51694       -2.44622       -1.53849
O          0.53095       -2.23026       -2.64808
C          1.19941       -2.54805       -3.87108
N          0.90413       -1.50051       -4.81824
C          0.08238       -1.74532       -5.91229
N         -0.27238       -0.87087       -6.80746
C          0.20325        0.36961       -6.54434
C          1.03031        0.74219       -5.51678
C          1.22476        2.11868       -5.65848
N          0.55893        2.61135       -6.71078
N         -0.08531        1.52333       -7.22189
C         -0.95562        1.65926       -8.37719
O         -1.97660        2.63515       -8.12183
C         -2.99158        2.20100       -7.32811
O         -3.09393        1.06012       -6.89743
C         -4.02006        3.30835       -7.09367
C         -3.33439        4.56156       -6.53391
C         -4.71287        3.62333       -8.42517
C         -5.06799        2.82112       -6.07984
C          1.46708       -0.24422       -4.57593
O          2.23525        0.01976       -3.65764
H          0.65342        0.14384        0.95084
H          0.86405        0.48759       -0.77436
H          2.18823       -0.22417        0.14895
H          0.36661       -2.30389        1.75029
H          0.56107       -3.61850        0.57446
H          1.95335       -2.64190        1.04487
H         -1.20967       -0.83984       -1.31017
H         -1.35244       -2.53329       -0.82113
H         -1.45338       -1.24787        0.39194
H          2.28667       -2.64237       -3.78067
H          0.80064       -3.50486       -4.22483
H         -0.26912       -2.78631       -5.99884
H          1.81223        2.78470       -5.03901
H         -0.33404        2.02212       -9.20210
H         -1.37845        0.68992       -8.66000
H         -2.61489        4.98257       -7.24502
H         -4.06690        5.34391       -6.30526
H         -2.78531        4.33232       -5.61338
H         -5.14991        2.71914       -8.86478
H         -5.51492        4.35748       -8.29272
H         -4.00679        4.02995       -9.15818
H         -5.57833        1.91871       -6.43638
H         -4.60316        2.57421       -5.11806
H         -5.83155        3.58535       -5.89747
