21

O          1.21166       -0.34235       -0.61648
N          2.20468       -0.11774        0.08379
N          2.75216       -1.22358        0.53820
C          3.75977       -1.02133        1.57301
C          5.14771       -0.60702        1.07729
C          6.01859       -1.77440        0.62870
C          5.46317       -2.56847       -0.54488
C          4.13463       -3.25710       -0.24321
C          2.92366       -2.33253       -0.40471
H          3.83521       -1.91961        2.19911
H          3.40551       -0.24473        2.26725
H          5.66697       -0.10689        1.90519
H          5.07158        0.13781        0.27599
H          7.00454       -1.38325        0.34875
H          6.18720       -2.44944        1.47724
H          5.36993       -1.92322       -1.42674
H          6.19902       -3.34035       -0.80282
H          4.01343       -4.07775       -0.96258
H          4.14703       -3.72655        0.74724
H          2.94736       -1.96304       -1.44059
H          2.02482       -2.95983       -0.33284
