27

C          0.99499       -0.13416       -0.01596
C          0.35664       -0.68588       -1.06171
C         -1.13056       -0.65000       -1.21838
C          1.18300       -1.36537       -2.09576
O          2.35579       -1.67173       -1.95462
O          0.45237       -1.56256       -3.22278
C          1.18105       -2.08648       -4.34682
C          1.97017       -1.02671       -5.11931
F          3.03278       -0.61811       -4.37955
F          2.50117       -1.63368       -6.22119
C          1.12213        0.16542       -5.53867
F          0.09452       -0.27347       -6.32195
F          0.53705        0.74024       -4.44977
C          1.95848        1.19290       -6.27361
F          2.96208        1.66227       -5.47732
F          2.57844        0.64301       -7.35622
C          1.11979        2.36652       -6.73597
F          0.15064        1.97371       -7.60089
F          0.48851        2.97083       -5.69786
H          0.45439        0.37693        0.77391
H          2.07808       -0.17191        0.07658
H         -1.41440       -0.06238       -2.09745
H         -1.52934       -1.66385       -1.32862
H         -1.61940       -0.19918       -0.34787
H          1.84172       -2.90157       -4.02676
H          0.44197       -2.54548       -5.01347
H          1.73858        3.11621       -7.23666
