20

O          0.82175       -0.47182        0.31109
C          0.32316       -0.94632       -0.93520
C          1.01232       -0.32864       -2.16944
C          2.54525       -0.33415       -2.13561
C          3.14749        0.81442       -1.33160
C          2.47843        2.13604       -1.68101
C          0.96471        2.01152       -1.61352
O          0.50567        0.97692       -2.47955
H          1.65192       -0.94384        0.49248
H          0.44364       -2.03517       -0.94347
H         -0.74850       -0.72389       -0.95978
H          0.70338       -0.95152       -3.01841
H          2.90123       -0.22517       -3.16901
H          2.92409       -1.29649       -1.77386
H          3.04286        0.62478       -0.25866
H          4.22385        0.87903       -1.52849
H          2.82707        2.92776       -1.00963
H          2.77007        2.41558       -2.70098
H          0.61399        1.84016       -0.59158
H          0.50755        2.94698       -1.95270
