26

C          0.96610        0.12015       -0.06814
C          0.28109       -0.86576        0.87502
N         -0.76286       -0.54031        1.58678
C         -1.25495        0.70086        1.54744
N         -1.67092        1.78259        1.53090
N          0.81838       -2.15383        0.98067
C          1.63339       -2.76444       -0.06638
C          0.28618       -3.10743        1.96834
C          0.91255       -2.97652        3.33952
C          1.19330       -4.11767        4.10398
C          1.65973       -3.98785        5.41223
C          1.82908       -2.71263        5.91790
Cl         2.35951       -2.46106        7.52816
N          1.58372       -1.58795        5.22537
C          1.12653       -1.74739        3.96070
H          0.72248        1.16089        0.15018
H          0.66656       -0.10270       -1.09604
H          2.05219        0.02439        0.02498
H          2.46108       -3.32766        0.37722
H          1.02350       -3.45503       -0.65999
H          2.07047       -2.04159       -0.75915
H         -0.80321       -3.01748        2.05909
H          0.45996       -4.13022        1.60605
H          1.03259       -5.11342        3.69737
H          1.86765       -4.85963        6.02130
H          0.92141       -0.80729        3.46094
