13

O          1.03255       -0.28322       -0.11779
S          2.44262       -0.08282        0.13158
O          2.99440       -0.08109        1.46636
O          3.22417       -1.22887       -0.69464
C          3.01687        1.34400       -0.76747
C          2.52354        1.32937       -2.19902
O          1.14756        1.68891       -2.27911
H          2.91592       -2.10451       -0.37563
H          2.64252        2.21963       -0.22783
H          4.10981        1.33185       -0.72019
H          3.07394        2.07953       -2.77571
H          2.66544        0.36284       -2.69165
H          0.62322        0.98824       -1.83917
