16

C          0.86764        0.03173       -0.00884
C          0.60216        1.34164        0.71042
O          1.03321        2.45889       -0.07915
C          2.35517        2.75112       -0.01693
O          3.19213        2.11732        0.61249
N          2.69710        3.85439       -0.73980
C          1.80589        4.72148       -1.46854
H          0.42805        0.04454       -1.01128
H          0.44738       -0.80804        0.55211
H          1.94126       -0.14014       -0.13331
H         -0.47581        1.46037        0.86256
H          1.06975        1.35943        1.70170
H          3.68379        4.07226       -0.71171
H          1.95439        5.74069       -1.10227
H          2.07760        4.67985       -2.52611
H          0.75804        4.44086       -1.34577
