50

C          1.04142       -0.56479       -0.98518
N          0.31892        0.47473       -1.83255
C          0.81463        0.29734       -3.27586
C         -1.18787        0.20840       -1.83646
C          0.63150        1.92567       -1.39288
C          0.01895        2.38754       -0.05159
O          0.70671        1.82350        1.08000
C          0.18697        0.74878        1.71079
O         -0.89279        0.25204        1.42806
C          1.10663        0.21272        2.78991
C          2.57137       -0.02331        2.40179
C          3.49104        1.18145        2.42224
O          4.57080        1.20397        2.99336
O          2.97130        2.23592        1.75816
C          3.65905        3.50014        1.77790
C          3.04651        4.47861        2.80502
N          3.35909        4.20153        4.29557
C          4.86587        4.08249        4.53385
C          2.86338        5.40146        5.11704
C          2.63659        2.97094        4.82877
H          0.31521       -1.18732       -0.45697
H          1.69479       -0.04107       -0.29367
H          1.67444       -1.19467       -1.61701
H          0.59577       -0.72930       -3.58637
H          0.29034        1.01208       -3.91446
H          1.89327        0.48267       -3.28882
H         -1.58825        0.35756       -0.83561
H         -1.65476        0.90813       -2.53464
H         -1.35403       -0.82607       -2.14778
H          1.72591        2.00334       -1.35288
H          0.26429        2.57622       -2.19434
H          0.19186        3.46931        0.02392
H         -1.06421        2.25689        0.01042
H          1.00155        0.83282        3.68086
H          0.69200       -0.76971        3.05426
H          2.98601       -0.70997        3.15249
H          2.67646       -0.52914        1.44134
H          4.74222        3.38498        1.86538
H          3.48614        3.93073        0.78265
H          3.41371        5.48950        2.59608
H          1.95210        4.47883        2.71765
H          5.33276        5.02430        4.23374
H          5.03203        3.88303        5.59559
H          5.26626        3.26245        3.94101
H          1.78473        5.49822        4.95844
H          3.08223        5.20488        6.17144
H          3.38766        6.29726        4.77619
H          2.00357        3.24219        5.67870
H          1.98321        2.59788        4.04564
H          3.36280        2.21556        5.13852
