19

C          0.98636       -0.40417       -0.37844
C          0.38973       -1.13294        0.81629
C          1.02794       -0.74770        2.14675
C          0.42806        0.50253        2.76391
O         -0.45676        0.40726        3.61952
C          0.85160        1.86834        2.25843
C          2.35356        2.04294        2.14589
H          0.72358        0.65587       -0.37738
H          0.60327       -0.83443       -1.30943
H          2.07735       -0.49075       -0.39144
H         -0.69307       -0.96500        0.84268
H          0.54362       -2.20779        0.66111
H          0.84642       -1.55846        2.86500
H          2.11534       -0.65869        2.07566
H          0.36210        2.05783        1.29963
H          0.46901        2.61354        2.96619
H          2.77645        1.40253        1.36631
H          2.59559        3.07874        1.88787
H          2.85029        1.79815        3.09021
