32

O          1.05555       -0.01367       -0.07136
C          2.28468       -0.02857       -0.05646
O          2.95982        0.80275       -0.88781
C          3.07567       -0.95883        0.87381
F          2.73377       -0.72338        2.17677
F          2.73377       -2.26179        0.63839
C          4.57154       -0.80399        0.71897
F          4.91542       -1.02832       -0.58273
F          4.91542        0.49772        0.94328
C          5.33977       -1.72997        1.64497
F          4.99760       -1.48473        2.93763
F          4.99760       -3.02263        1.39975
C          6.83727       -1.55037        1.46537
F          7.17505       -1.78847        0.16827
F          7.17505       -0.25327        1.70345
C          7.62020       -2.47106        2.38608
F          7.27981       -2.22882        3.68075
F          7.27981       -3.76574        2.14386
C          9.11695       -2.28636        2.20138
F          9.45460       -2.52656        0.90513
F          9.45460       -0.99011        2.44154
C          9.90211       -3.20545        3.12049
F          9.56196       -2.96464        4.41572
F          9.56196       -4.50068        2.87970
C         11.38972       -3.01678        2.93182
F         11.74091       -3.26052        1.63715
F         11.74091       -1.72211        3.17552
C         12.14629       -3.94565        3.86070
F         11.86848       -3.70816        5.16356
F         11.86848       -5.24851        3.62325
F         13.48721       -3.79987        3.71492
H          3.93859        0.80716       -0.89223
