28

O          1.68681       -0.48183        1.54674
S          1.30778       -0.14886        0.19202
O          1.93234       -0.75206       -0.96644
N          1.22861        1.47772        0.00661
C         -0.00547        1.87177       -0.16939
N         -0.26843        3.19740       -0.40614
C         -1.43714        3.91024       -0.09542
C         -1.90933        4.84753       -1.02255
C         -3.08792        5.55539       -0.78518
C         -3.78781        5.35885        0.40233
C         -3.29442        4.47560        1.36134
C         -2.11467        3.76559        1.12044
C         -1.02520        0.78654       -0.16565
C         -2.39495        0.81688       -0.37137
C         -3.10847       -0.38757       -0.30324
C         -2.44915       -1.60607       -0.06505
C         -1.06614       -1.63809        0.10605
C         -0.40040       -0.42741        0.05224
H          0.55954        3.78671       -0.36356
H         -1.37775        4.99953       -1.95953
H         -3.46155        6.25187       -1.53140
H         -4.71290        5.90051        0.58342
H         -3.83089        4.33685        2.29684
H         -1.74134        3.08935        1.88576
H         -2.92760        1.73607       -0.58618
H         -4.18803       -0.37965       -0.44443
H         -3.02355       -2.52958       -0.02607
H         -0.53440       -2.56977        0.26895
