16

C          1.05967        0.06655        0.09571
C          0.48175       -1.16084        0.80491
C          0.98610       -1.20511        2.24974
C         -1.05654       -1.18116        0.79134
N         -1.60122       -1.27205       -0.55943
H          0.67774        0.99450        0.53467
H          0.81221        0.06617       -0.97031
H          2.15221        0.08083        0.17448
H          0.85298       -2.05837        0.29303
H          0.65138       -0.32843        2.81481
H          0.61896       -2.10019        2.76299
H          2.08061       -1.23020        2.27972
H         -1.41487       -2.04603        1.36127
H         -1.45414       -0.28416        1.28040
H         -2.61895       -1.30194       -0.50967
H         -1.37167       -0.42875       -1.08291
