26

C          1.14328       -0.28053        0.08434
C          0.74573        1.18674        0.11251
C          1.12918        1.94659       -1.16030
C          0.38315        1.51512       -2.42853
C         -1.12124        1.78184       -2.40576
O         -1.36959        3.19721       -2.42367
C         -1.78243        3.77328       -1.26617
O         -1.99104        3.17872       -0.21586
C         -2.02285        5.25679       -1.42269
C         -1.28670        5.90052       -2.58542
H          0.63245       -0.82243       -0.71639
H          0.87486       -0.75861        1.03203
H          2.22326       -0.39018       -0.05504
H         -0.32808        1.26262        0.30455
H          1.24590        1.66433        0.96363
H          0.97137        3.01850       -0.99301
H          2.20572        1.82355       -1.33343
H          0.81895        2.06967       -3.26956
H          0.56086        0.45274       -2.62536
H         -1.56411        1.38122       -3.32456
H         -1.62101        1.27432       -1.57455
H         -3.10072        5.41202       -1.53363
H         -1.69448        5.74030       -0.49560
H         -1.63110        5.49909       -3.54424
H         -1.46092        6.98095       -2.59244
H         -0.20801        5.72642       -2.51403
