29

C          0.35363       -1.19488        0.91421
C         -0.13955       -0.39787        2.11569
C          0.80716        0.71280        2.57898
O          0.60169        1.96942        1.93872
P          1.17836        2.31386        0.34445
O          2.11710        1.10299        0.39319
O         -0.26253        1.84130       -0.28960
C         -1.38700        2.64818       -0.01153
O          1.75503        2.65830       -1.24983
C          3.14286        2.57795       -1.55083
C          4.00812        3.60815       -0.82872
C          4.32946        3.25729        0.61718
H          0.27932       -0.62280       -0.01396
H         -0.25999       -2.09285        0.78268
H          1.39039       -1.51600        1.04520
H         -1.13138        0.00634        1.90059
H         -0.24619       -1.11134        2.94356
H          0.58080        0.90318        3.63575
H          1.85838        0.41364        2.56450
H         -1.94836        2.20548        0.81608
H         -1.09177        3.66724        0.25247
H         -2.02968        2.67751       -0.89440
H          3.51846        1.55809       -1.41759
H          3.21712        2.77824       -2.62600
H          4.96095        3.68323       -1.36685
H          3.53039        4.59300       -0.86063
H          4.67289        2.22189        0.71032
H          5.12622        3.90763        0.99255
H          3.46437        3.40083        1.26898
