12

C          0.01262        0.91265       -0.07092
O         -0.53141       -0.41011       -0.06354
C          0.88969       -0.29677        0.13208
C          1.72215       -0.96878       -0.93727
C          2.13487       -0.34630       -2.24697
O          3.02467       -0.38765       -1.12793
H         -0.19169        1.54349        0.78521
H          0.04575        1.43754       -1.01591
H          1.24670       -0.45718        1.14646
H          1.68117       -2.05517       -0.92209
H          2.34624       -1.00501       -3.08010
H          1.72523        0.61418       -2.52855
