43

O          1.70728        0.09230        1.62889
C          2.73181        0.33879        0.99444
O          3.05355       -0.34020       -0.13823
C          4.40465       -0.85373       -0.28031
C          4.97246       -0.54133       -1.67880
O          4.44544        0.68429       -2.19015
C          6.50596       -0.45398       -1.64167
O          7.10389       -1.73016       -1.83791
C          3.67468        1.40352        1.43789
C          4.32743        2.19165        0.48209
C          5.35184        3.05852        0.85114
C          5.72096        3.15992        2.18630
C          4.97614        2.49746        3.16081
C          3.89619        1.67305        2.80472
N          2.86491        1.47548        3.80335
C          1.98099        2.60993        3.99737
C          1.20936        3.05557        2.91505
C          0.52149        4.24116        3.02756
N          0.50546        4.98575        4.14562
C          1.19545        4.54502        5.20667
C          1.11302        5.29765        6.36315
C          1.77857        4.91061        7.52159
Cl         1.59099        5.83945        8.95768
C          2.57694        3.77331        7.52747
C          2.68672        3.00555        6.36546
C          1.97877        3.36367        5.19530
H          5.05390       -0.49576        0.52080
H          4.35133       -1.94167       -0.15880
H          4.66099       -1.32623       -2.37582
H          3.47943        0.55732       -2.24889
H          6.87214        0.21314       -2.42991
H          6.87038       -0.03909       -0.69492
H          6.92685       -2.28274       -1.06002
H          4.02096        2.16213       -0.55550
H          5.85133        3.65662        0.09234
H          6.53216        3.82324        2.47722
H          5.18578        2.68772        4.21236
H          2.25750        0.72384        3.43682
H          1.16350        2.51620        1.97919
H         -0.04307        4.63843        2.18982
H          0.49935        6.19470        6.35808
H          3.10007        3.47394        8.43093
H          3.30423        2.11012        6.37876
