64

C          1.08138       -1.06867       -0.22631
N          0.23250       -0.51587        0.84199
S         -1.42326       -0.45511        0.48630
O         -1.60641       -0.55676       -0.94670
O         -2.01961       -1.40737        1.39613
C         -1.93309        1.18477        0.96921
C         -3.08939        1.28199        1.75265
C         -3.59278        2.52338        2.17977
O         -4.70695        2.35136        2.95882
C         -5.44227        3.49482        3.34808
C         -2.92545        3.70966        1.82007
N         -3.20123        4.97417        2.38606
N         -3.66725        5.82546        1.58478
C         -3.63241        7.12561        2.19271
C         -3.99417        7.33451        3.54169
O         -4.86331        6.42556        4.09606
C         -3.57896        8.47284        4.24439
C         -3.80439        8.69075        5.70338
O         -4.08331        9.82447        6.09281
N         -3.84421        7.64819        6.60832
C         -3.31868        6.34555        6.53142
C         -4.05964        5.32415        7.17894
C         -3.74984        3.97201        6.98603
C         -2.66447        3.69656        6.19062
N         -2.16480        2.47363        5.75890
C         -1.06063        2.70632        4.92557
O         -0.39648        1.86756        4.34299
N         -0.87669        4.09662        4.88332
C         -1.88093        4.70264        5.63080
C         -2.17352        6.03771        5.78689
C         -3.02433        9.53196        3.52291
C         -2.92906        9.47193        2.12743
C         -2.58251       10.62458        1.40616
C         -2.58398       10.61899        0.01383
C         -2.87769        9.44540       -0.67090
C         -3.16078        8.27121        0.03541
C         -3.22314        8.26005        1.44549
C         -1.76599        3.59118        1.02264
C         -1.25898        2.34935        0.57903
C          0.00283        2.33922       -0.23339
H          1.13093       -0.38004       -1.07371
H          0.71595       -2.04511       -0.55663
H          2.09562       -1.20494        0.15989
H          0.33428       -1.02850        1.72252
H         -3.61741        0.37785        2.05608
H         -4.89500        4.03868        4.11631
H         -5.71247        4.12035        2.49300
H         -6.37462        3.14941        3.80569
H         -5.19675        6.76902        4.94099
H         -4.34189        7.89463        7.45854
H         -4.94450        5.57433        7.76158
H         -4.36348        3.18672        7.41049
H         -2.55809        1.56101        5.92080
H         -0.17963        4.55003        4.31689
H         -1.55804        6.79732        5.32336
H         -2.75342       10.44829        4.04787
H         -2.35854       11.55607        1.92410
H         -2.37559       11.53579       -0.53262
H         -2.90927        9.44748       -1.75787
H         -3.41065        7.37531       -0.53077
H         -1.22343        4.50349        0.77653
H          0.84325        1.98612        0.37161
H         -0.10942        1.71684       -1.12494
H          0.25903        3.34455       -0.58385
