16

O          0.94327       -0.20482       -0.06302
N          0.47013        0.39752       -1.23234
C          1.39205        0.68747       -2.25237
N          2.51437       -0.07709       -2.37805
C          3.38703        0.22308       -3.36575
N          3.31555        1.21962       -4.27186
C          2.20259        1.94359       -4.09210
N          1.80852        3.03841       -4.80446
C          0.62190        3.46996       -4.27539
N          0.22863        2.71618       -3.26941
C          1.21273        1.75582       -3.14404
H          1.68397       -0.75714       -0.39026
H         -0.16844        1.17905       -1.07661
H          4.25939       -0.42093       -3.43693
H          2.31833        3.44990       -5.57204
H          0.09771        4.33498       -4.66079
