33

O          0.12898       -0.24679       -0.03513
C          0.26794       -1.10937        1.08266
C          0.94500       -2.40470        0.66806
C          2.46680       -2.32624        0.60951
F          2.92164       -2.03895        1.86150
F          2.91847       -3.58403        0.33425
C          3.04076       -1.33633       -0.40001
F          2.52575       -1.59228       -1.63426
F          2.63934       -0.06946       -0.08139
C          4.55921       -1.39640       -0.43899
F          5.06588       -1.12904        0.79607
F          4.97879       -2.65110       -0.75500
C          5.10772       -0.40196       -1.44745
F          4.61576       -0.67674       -2.68630
F          4.67378        0.85302       -1.14386
C          6.62660       -0.42360       -1.47843
F          7.11861       -0.13196       -0.24361
F          7.07071       -1.67487       -1.77393
C          7.16292        0.56893       -2.49546
F          6.68144        0.26996       -3.73270
F          6.70522        1.81859       -2.20973
C          8.67390        0.56662       -2.51391
F          9.16692        0.87879       -1.28162
F          9.14770       -0.67879       -2.80091
C          9.17298        1.56397       -3.54115
F          8.75338        1.26752       -4.79310
F          8.76722        2.82680       -3.27228
F         10.52893        1.59108       -3.58102
H          0.86193        0.39846       -0.01843
H          0.80024       -0.59370        1.88866
H         -0.74392       -1.32781        1.43875
H          0.68704       -3.17581        1.40437
H          0.56118       -2.74753       -0.30004
