17

C          1.08454       -0.05459        0.02626
O          0.67433       -1.41787       -0.05469
C          1.00185       -2.00699       -1.24765
C         -0.04685       -2.64758       -1.91055
C          0.19247       -3.29992       -3.11777
Cl        -1.10505       -4.06761       -3.94729
C          1.47625       -3.33647       -3.66069
C          2.53391       -2.72238       -2.98630
C          2.29619       -2.06502       -1.77741
O          3.34242       -1.50161       -1.10330
H          0.46180        0.43168        0.78383
H          0.93353        0.47783       -0.91989
H          2.12280        0.02574        0.35877
H         -1.04512       -2.62541       -1.48308
H          1.65992       -3.84814       -4.60195
H          3.53080       -2.77107       -3.41398
H          4.17381       -1.75500       -1.53584
