20

C         -2.54311       -0.75857       -0.07679
C         -1.21599       -0.05191       -0.00505
C         -1.20334        1.35179        0.03558
C         -0.00107        2.05045        0.06506
C          1.20274        1.35458        0.03502
C          1.21867       -0.04909       -0.00552
C          2.54735       -0.75269       -0.07801
C          0.00215       -0.76577        0.03305
N          0.00375       -2.16691       -0.11752
H         -2.58885       -1.39523       -0.96625
H         -2.69647       -1.36806        0.81955
H         -3.37550       -0.04948       -0.14001
H         -2.13639        1.91056        0.03007
H         -0.00234        3.13672        0.08978
H          2.13452        1.91551        0.02904
H          2.70190       -1.36327        0.81739
H          2.59469       -1.38780       -0.96848
H          3.37820       -0.04165       -0.13979
H          0.84178       -2.61214        0.23937
H         -0.83311       -2.61405        0.23979
