21

C          2.58020       -0.02977       -0.07147
C          1.06929        0.01518       -0.02310
C          0.31547       -1.20222       -0.01085
N          0.94065       -2.55760        0.00538
O          0.17879       -3.53233       -0.05238
O          2.16853       -2.65539        0.08533
C         -1.09718       -1.18853       -0.00948
C         -1.78700        0.02152       -0.00925
N         -3.25776        0.02911       -0.01832
O         -3.83395       -1.06884       -0.02726
O         -3.82543        1.12532       -0.01685
C         -1.08786        1.22787        0.00622
C          0.32634        1.23246        0.00569
N          0.94160        2.58304        0.04792
O          0.24924        3.53075       -0.33980
O          2.08286        2.70358        0.50966
H          2.97160       -0.44274        0.86492
H          2.90888       -0.63326       -0.92426
H          3.07778        0.92334       -0.23028
H         -1.66028       -2.12363       -0.00907
H         -1.64231        2.16775        0.02127
