14

O          1.19118       -0.72370       -0.19727
C          2.24500       -0.12754       -0.06810
O          2.93786        0.44026       -1.08480
C          2.95757        0.07368        1.22603
C          2.45824       -0.48817        2.39441
C          3.16628       -0.27672        3.57352
C          4.33128        0.48598        3.54025
C          4.74101        1.00298        2.32071
Cl         6.15956        1.95769        2.20170
N          4.09541        0.81942        1.15115
H          3.75176        0.86611       -0.72402
H          1.54531       -1.07676        2.38426
H          2.81310       -0.70199        4.50986
H          4.90094        0.66943        4.44516
