46

C          0.84987        0.67282        0.62943
C          0.50066        1.98310       -0.06609
C          1.18876        2.17512       -1.42655
N          0.63151        1.29781       -2.46266
C         -0.27388        1.91532       -3.43872
C          0.44183        2.45070       -4.68673
C          0.84570        1.37158       -5.68077
C          1.12584        0.00031       -2.53258
O          2.16551       -0.32583       -1.94892
C          0.39383       -1.05281       -3.37322
O         -1.02647       -1.01610       -3.47380
C         -1.67118       -1.53644       -2.40741
O         -1.15254       -1.96122       -1.38954
C         -3.13406       -1.48134       -2.59137
C         -3.88149       -1.19468       -1.43214
C         -5.27755       -1.11399       -1.47158
C         -5.95168       -1.32741       -2.66972
C         -5.22917       -1.61493       -3.82538
C         -3.82818       -1.69683       -3.78195
O         -3.26304       -1.96550       -5.08979
C         -2.28709       -2.51963       -5.94042
C         -1.25205       -3.36352       -5.27737
O         -2.32128       -2.32982       -7.15164
H          0.43250       -0.18756        0.09956
H          0.43645        0.65782        1.64275
H          1.93420        0.54296        0.70679
H         -0.58781        2.04749       -0.18074
H          0.80448        2.80415        0.59384
H          1.06505        3.21720       -1.74485
H          2.26690        2.00375       -1.33117
H         -1.06148        1.22476       -3.73541
H         -0.78187        2.74828       -2.93690
H         -0.24202        3.13489       -5.20312
H          1.32713        3.03265       -4.40641
H          0.01117        0.69499       -5.89356
H          1.15668        1.82203       -6.62864
H          1.69235        0.78856       -5.30824
H          0.79737       -1.00586       -4.38586
H          0.69941       -2.03742       -2.99212
H         -3.37382       -1.02278       -0.48296
H         -5.83591       -0.88477       -0.56622
H         -7.03730       -1.26913       -2.70523
H         -5.75620       -1.77916       -4.76294
H         -1.16691       -4.31136       -5.81534
H         -0.29315       -2.84407       -5.32924
H         -1.50625       -3.58943       -4.24265
