33

C          0.81060        0.30543        0.05933
N          0.65104        0.96765       -1.21207
C          0.67775        0.25413       -2.46525
C          0.65861        1.35919       -3.51702
O         -0.38378        1.16271       -4.45550
N          0.44113        2.57812       -2.77891
C          0.37725        3.81280       -3.38455
N          0.34126        3.95454       -4.69365
N          0.37902        5.27153       -5.08017
C          0.47822        6.09657       -4.05450
C          0.66343        7.60015       -4.19804
C          1.33086        7.89159       -5.56155
C         -0.70256        8.30342       -4.15914
C          1.57435        8.18689       -3.10319
S          0.37657        5.28846       -2.53340
C          0.49793        2.34283       -1.39999
O          0.44427        3.14934       -0.48081
H          0.12180       -0.54183        0.10977
H          0.60802        0.99412        0.88314
H          1.84040       -0.05489        0.13569
H          1.59257       -0.34355       -2.52353
H         -0.19523       -0.40391       -2.52256
H          1.62072        1.41675       -4.04035
H         -0.39785        1.97609       -4.99720
H          0.70354        7.55787       -6.39692
H          1.51433        8.96317       -5.69710
H          2.29412        7.37370       -5.64778
H         -1.20355        8.15647       -3.19561
H         -0.59378        9.38325       -4.31509
H         -1.37164        7.92117       -4.93902
H          1.11564        8.12226       -2.11007
H          2.53716        7.66392       -3.06217
H          1.78143        9.24727       -3.28965
