54

C          1.82383        0.98895        0.67236
C          2.62589        2.15508        0.11238
O          3.81686        1.96423       -0.17082
C          1.98133        3.58797       -0.15161
O          3.00973        4.55889        0.03382
C          0.78509        3.93636        0.78936
C         -0.51513        3.68332       -0.03152
C          0.04049        2.96489       -1.25185
C         -0.76659        2.34628       -2.39205
C         -1.86171        1.45431       -1.77514
C         -2.36450        0.34258       -2.67969
C         -1.23222       -0.43744       -3.30247
C         -1.14990       -1.76830       -3.11831
C         -0.11509       -2.57940       -3.79872
O          0.01186       -3.77015       -3.51234
C          0.67717       -1.91802       -4.89140
C          1.03282       -0.50717       -4.46163
C         -0.20965        0.37601       -4.10143
C         -0.84599        0.91430       -5.39076
C          0.30096        1.52175       -3.18712
C          1.27910        2.51297       -3.84420
C          2.15305        3.16360       -2.76496
C          1.33809        3.73240       -1.58014
C          1.06043        5.22101       -1.95389
H          1.32819        0.42152       -0.12063
H          1.09154        1.30482        1.41433
H          2.50827        0.29927        1.17659
H          3.76921        4.09511        0.44036
H          0.78562        3.32932        1.69831
H          0.82673        4.97921        1.12263
H         -1.22794        3.07951        0.53678
H         -1.01378        4.62379       -0.28809
H          0.35268        2.03665       -0.78605
H         -1.22562        3.11054       -3.02996
H         -2.70408        2.08244       -1.45912
H         -1.48858        0.97996       -0.85627
H         -3.00331       -0.31697       -2.07708
H         -3.00512        0.75528       -3.46513
H         -1.84799       -2.32726       -2.50527
H          1.59772       -2.48887       -5.05612
H          0.09276       -1.92709       -5.81572
H          1.69583       -0.59256       -3.58713
H          1.63430       -0.03729       -5.24814
H         -1.59914        1.68132       -5.18327
H         -0.09367        1.36746       -6.04594
H         -1.33274        0.11369       -5.95839
H          0.89402        0.98468       -2.42971
H          0.73017        3.27662       -4.40933
H          1.94475        2.01974       -4.55869
H          2.88236        2.42151       -2.43432
H          2.75307        3.95169       -3.24136
H          0.45675        5.28936       -2.86609
H          0.53966        5.78785       -1.17770
H          1.99762        5.76135       -2.13649
