20

C          1.02271       -0.12845       -0.11311
C          0.52315       -0.51051        1.27087
C          0.81258        0.53184        2.35723
C          0.28146        1.95388        2.10797
C         -1.22045        2.04877        2.14809
O         -1.90861        2.62022        2.97786
O         -1.81557        1.44786        1.09711
C          0.89329        2.91011        3.10032
O          1.41361        3.98068        2.82585
O          0.81818        2.50463        4.38273
H          0.49210        0.74205       -0.50888
H          0.85836       -0.95609       -0.81095
H          2.09404        0.09392       -0.09765
H         -0.54908       -0.72761        1.22735
H          1.00799       -1.44990        1.56483
H          0.40386        0.14768        3.30124
H          1.90127        0.58022        2.49734
H          0.61071        2.31208        1.12514
H         -2.77330        1.60149        1.24388
H          1.17615        3.25732        4.89921
