12

O          1.21585        0.52253        0.24538
C          2.35484        0.10924        0.08009
O          2.98898       -0.61207        1.03884
C          3.11693        0.36712       -1.12957
C          2.75825        1.25745       -2.18768
C          3.75840        1.18478       -3.12636
O          4.70905        0.30256       -2.73048
C          4.31439       -0.19415       -1.52907
H          3.91721       -0.81609        0.83550
H          1.87125        1.87531       -2.24230
H          3.93081        1.66637       -4.07930
H          4.98505       -0.93208       -1.11133
