26

O          0.95166        0.08549        0.01882
P          2.50001        0.08549        0.01882
O          2.44343       -1.05774       -1.13197
O          2.42256        1.36459       -1.01406
C          4.33001        0.08549        0.01882
O          4.71835        0.50191        1.36934
C          5.00883       -1.31698       -0.22155
N          4.90977       -2.01119       -1.50033
C          4.18377       -3.15394       -1.74720
C          4.29490       -3.37319       -3.09930
N          5.19137       -2.50361       -3.65415
C          5.58990       -1.74214       -2.65946
P          4.94000        1.41197       -1.08447
O          6.39741        1.05827       -0.76574
O          4.49316        0.67603       -2.45945
O          5.51666        2.66596       -2.12748
H          1.50626       -1.28486       -1.31127
H          1.45951        1.47851       -1.19920
H          5.67299        0.72925        1.29507
H          6.08405       -1.25539       -0.01153
H          4.61537       -2.01120        0.53241
H          3.60176       -3.65070       -0.98449
H          3.79054       -4.11901       -3.70110
H          6.31593       -0.94206       -2.74767
H          3.61436        0.98963       -2.76033
H          6.35549        2.31377       -2.49040
