20

C          0.99653       -0.23894        0.00314
N          0.30491       -0.25208        1.27548
O          0.22098        1.07709        1.76964
N          0.68235       -1.23696        2.14024
N          0.24931       -1.03228        3.29321
C          0.70455       -2.00746        4.20402
C         -0.18483       -2.48175        5.17614
C          0.22788       -3.41081        6.13546
C          1.54219       -3.87384        6.13676
C          2.44355       -3.40675        5.18229
C          2.02789       -2.47530        4.22716
H          0.53031        0.50320       -0.65122
H          0.92359       -1.22739       -0.45825
H          2.04623        0.02446        0.16408
H         -0.72697        1.10724        1.98885
H         -1.20919       -2.11823        5.18663
H         -0.47526       -3.76700        6.88411
H          1.86607       -4.59271        6.88507
H          3.47169       -3.75923        5.18464
H          2.74539       -2.10344        3.49981
