24

C          1.02062        0.17199        0.10027
C          0.58817       -1.04664       -0.73251
C          1.02693       -2.32456        0.01813
C         -0.95529       -1.06421       -0.80215
C          1.18040       -1.04533       -2.18178
N          0.72526        0.06819       -3.02810
C          1.15561        1.35854       -3.01751
O          0.52053        2.25564       -3.55714
C          2.69510       -1.32194       -2.22478
O          3.21120       -2.42887       -2.28706
O          3.47419       -0.24186       -2.02782
H          0.57839        0.13344        1.10343
H          0.69453        1.11271       -0.35273
H          2.10668        0.21132        0.22787
H          0.53444       -2.40175        0.99432
H          0.77251       -3.22473       -0.55279
H          2.10625       -2.33495        0.20437
H         -1.35172       -0.14077       -1.23708
H         -1.31380       -1.90456       -1.40749
H         -1.39550       -1.16850        0.19672
H          0.75276       -1.91583       -2.70147
H         -0.20381       -0.01057       -3.42520
H          2.12576        1.53459       -2.53762
H          4.38366       -0.60740       -1.98534
