53

O          2.29884       -1.57889        0.83247
C          2.97797       -0.62571        0.47600
O          3.28625       -0.42080       -0.81725
C          3.54063        0.39174        1.43974
C          2.90037        1.78810        1.53290
C          1.33534        1.91070        1.63626
C          0.67699        1.59535        0.26840
C          0.78624        2.68323       -0.82528
C          2.17991        2.87730       -1.36920
O          2.98615        1.99833       -1.63783
O          2.51370        4.17396       -1.48613
C          0.91483        0.97394        2.79192
C         -0.47038        1.20063        3.36564
C         -0.71486        2.65247        3.75026
C         -0.48885        3.66692        2.61013
C         -0.39004        5.10149        3.32085
C         -0.13792        6.36467        2.46532
C         -1.27956        6.81003        1.59163
O         -2.40693        7.09544        1.95722
O         -0.95202        6.84525        0.28418
C         -1.70337        3.79737        1.62436
C         -2.54820        2.72590        0.92358
C         -3.20378        1.62056        1.69527
O         -3.34551        0.47585        1.29178
O         -3.70273        1.98600        2.88325
C          0.93515        3.35751        2.02281
O          1.76179        4.25620        1.83944
H          3.62398        0.47841       -1.03824
H          3.51051       -0.07888        2.43114
H          4.60927        0.49559        1.21485
H          3.33307        2.25431        2.43115
H          3.29150        2.40854        0.72700
H          1.05066        0.66254       -0.14872
H         -0.37216        1.37755        0.44535
H          0.14623        2.41689       -1.67368
H          0.41539        3.64505       -0.45797
H          3.46166        4.18957       -1.73192
H          1.62340        1.09166        3.62430
H          0.98067       -0.07286        2.47899
H         -0.58834        0.57815        4.26168
H         -1.19762        0.83223        2.65189
H         -0.02451        2.88079        4.57583
H         -1.71667        2.76915        4.17684
H         -1.31049        5.26457        3.89966
H          0.42221        5.06260        4.06011
H          0.05962        7.20801        3.13972
H          0.76060        6.27882        1.85115
H         -1.76897        7.13417       -0.17257
H         -2.45905        4.39190        2.15718
H         -1.35047        4.41450        0.79354
H         -3.38960        3.25328        0.44868
H         -2.01345        2.29436        0.07829
H         -4.09430        1.15639        3.23400
