41

C          0.93681       -0.53784       -0.02325
C          0.32842       -0.92501       -1.34794
O         -0.50146       -1.83453       -1.41670
N          0.62897       -0.21076       -2.47623
C          1.61410        0.76479       -2.68043
C          1.34018        1.80133       -3.57344
C          2.23631        2.86774       -3.70284
C          3.42943        2.88559       -2.97811
O          4.14351        4.04784       -3.06755
C          5.26788        4.23563       -2.19561
C          4.86913        4.77745       -0.80628
O          3.93979        3.90860       -0.14348
C          6.08835        4.91087        0.12867
N          7.03898        5.94711       -0.28008
C          8.12993        6.11470        0.69040
C          9.16714        4.99452        0.58455
C          8.79075        7.46623        0.41962
C          3.76028        1.77957       -2.19907
C          2.85226        0.72992       -2.04340
H          0.24936       -0.82630        0.77853
H          1.07003        0.54495        0.05307
H          1.88378       -1.05856        0.12993
H         -0.04445       -0.36261       -3.21815
H          0.39966        1.83582       -4.11709
H          1.97995        3.70978       -4.34176
H          5.88381        3.33238       -2.13513
H          5.89735        4.98338       -2.69184
H          4.36519        5.74500       -0.91478
H          3.11597        3.93961       -0.66382
H          5.71543        5.13283        1.13727
H          6.58061        3.93286        0.19756
H          7.43286        5.73952       -1.19620
H          7.72901        6.14221        1.71132
H          9.56399        4.91032       -0.43345
H         10.01075        5.18488        1.25678
H          8.74247        4.02484        0.86296
H          8.06714        8.28265        0.52397
H          9.60062        7.64977        1.13398
H          9.21432        7.51453       -0.58984
H          4.69313        1.71453       -1.64952
H          3.14988       -0.11246       -1.42777
