29

C          0.00002        0.32050        0.90164
C          0.29194        1.80015        0.82574
C          1.10767        2.38783       -0.36982
C          2.10107        1.69245       -1.31269
C          2.61615        0.46620       -1.54478
C          3.62051        0.29362       -2.66814
C          2.33725       -0.81667       -0.82819
C          1.95244        3.49692        0.28925
O          3.07580        3.31571        0.76119
N          1.36982        4.72592        0.42310
C          0.33470        5.19291       -0.31947
O          0.03302        6.37965       -0.32268
N         -0.30604        4.29298       -1.10941
C          0.05899        2.99120       -1.32370
O         -0.49941        2.35483       -2.21829
H         -0.36506       -0.07681       -0.04639
H         -0.77552        0.13735        1.65456
H          0.87655       -0.22608        1.25000
H         -0.69074        2.29594        0.85317
H          0.75361        2.08125        1.78223
H          2.49975        2.44656       -2.00490
H          4.56589       -0.09277       -2.27222
H          3.23690       -0.41390       -3.41117
H          3.84302        1.22993       -3.19034
H          2.60816       -0.74130        0.22659
H          1.29848       -1.12457       -0.96082
H          2.94148       -1.63647       -1.23584
H          1.92151        5.42820        0.89706
H         -1.01007        4.66872       -1.73001
