17

O          1.07463        0.67680       -0.17219
N          2.16835        0.12986        0.02050
O          2.73492       -0.65736       -0.74985
C          2.89881        0.51491        1.20962
C          4.02636        1.33053        1.04111
C          4.74599        1.73359        2.16282
C          4.33836        1.32162        3.43440
C          3.20570        0.49596        3.58683
N          2.82212        0.08520        4.94220
O          3.52874        0.45938        5.88713
O          1.80539       -0.61690        5.05790
C          2.46936        0.07763        2.46701
O          1.37637       -0.74299        2.52886
H          4.33987        1.64973        0.04863
H          5.62343        2.36833        2.05013
H          4.91658        1.65048        4.29790
H          1.14442       -0.95621        3.45913
