61

C          0.58762        0.08984        0.29573
C          0.45597        0.29750       -1.20662
N          0.79564       -0.88146       -2.01884
C         -0.24472       -1.90092       -2.17228
C         -1.38117       -1.46461       -3.09182
C          2.15326       -1.13713       -2.19962
O          2.98012       -0.60829       -1.44863
C          2.64005       -2.01282       -3.37881
C          4.11359       -1.61431       -3.74724
N          4.18866       -0.56276       -4.79596
C          5.47544        0.12782       -4.81096
C          5.52537        1.12769       -5.97510
C          4.41307        2.13500       -5.84459
C          4.60045        3.47827       -6.20065
C          3.60277        4.44128       -5.97095
O          3.78072        5.77036       -6.25191
C          5.11496        6.22754       -6.43818
C          2.36856        4.02704       -5.44525
O          1.26932        4.78761       -5.13665
C          1.43127        6.19332       -5.01908
C          2.16882        2.67015       -5.15161
C          3.18650        1.71770       -5.32238
C          3.02863        0.33657       -4.71710
C          1.84092       -0.48147       -5.26352
C          1.82345       -1.91265       -4.67895
O          2.42314       -2.83248       -5.63658
C          1.71770       -3.93212       -5.99320
C          0.52288       -3.62227       -6.84495
O          2.08127       -5.06597       -5.71981
H         -0.00944       -0.75886        0.63942
H          0.24725        0.98554        0.82584
H          1.62588       -0.08991        0.58969
H         -0.56159        0.61658       -1.45021
H          1.11795        1.11926       -1.50914
H          0.19683       -2.83624       -2.52722
H         -0.64957       -2.11688       -1.17733
H         -1.89900       -0.57999       -2.71019
H         -2.11901       -2.26701       -3.18600
H         -1.02544       -1.21484       -4.09476
H          2.65526       -3.04884       -3.01751
H          4.67562       -1.31282       -2.85600
H          4.62614       -2.50162       -4.14032
H          5.65057        0.64787       -3.86013
H          6.28431       -0.59962       -4.94656
H          6.49936        1.62945       -5.97295
H          5.41987        0.60808       -6.93610
H          5.55868        3.75721       -6.62683
H          5.77493        5.90301       -5.62570
H          5.49714        5.90641       -7.41194
H          5.09803        7.32153       -6.42997
H          2.25816        6.45534       -4.35049
H          1.53535        6.65708       -6.00401
H          0.51596        6.59408       -4.57088
H          1.22122        2.37603       -4.70352
H          2.86294        0.59195       -3.66650
H          0.90658        0.02116       -4.98785
H          1.87048       -0.52352       -6.36014
H          0.79539       -2.22793       -4.52519
H          0.83016       -3.01632       -7.70103
H          0.10715       -4.56038       -7.22573
H         -0.25025       -3.11424       -6.26716
