16

N          1.04030        0.15166       -0.00853
C          0.23360        0.53212       -1.08237
C         -0.94782        1.19857       -0.86425
C         -1.65960        1.55054       -1.98536
N         -2.88869        2.20278       -1.86847
N         -1.25005        1.25911       -3.22280
C         -0.07419        0.63680       -3.33069
N          0.36345        0.32487       -4.60303
N          0.68787        0.24769       -2.30606
H          0.52984       -0.40317        0.66908
H          1.83531       -0.35547       -0.39038
H         -1.29714        1.43152        0.13096
H         -2.81132        3.04637       -1.31100
H         -3.21121        2.40739       -2.81167
H         -0.42961        0.26152       -5.22562
H          0.98549       -0.46980       -4.56104
