10

C          0.95144        0.07007        0.04935
C          0.19718        0.81993        0.86347
C         -1.25067        0.86622        0.91372
C         -1.90240        1.65918        1.77463
Cl        -2.18939       -0.12152       -0.15866
H          0.53061       -0.60749       -0.68628
H          2.03467        0.12028        0.10385
H          0.71710        1.46840        1.56751
H         -2.98723        1.68690        1.80473
H         -1.37758        2.30220        2.47276
