18

C          1.01710        0.06470       -0.15152
C          0.57171       -1.25746       -0.76616
C          1.05171       -2.50730       -0.07533
C          1.92934       -2.58308        0.93521
N          2.28114       -3.77959        1.49392
C          1.77571       -4.98371        1.09234
O          2.11150       -6.03803        1.62085
N          0.87783       -4.93059        0.06788
C          0.47365       -3.79257       -0.57178
O         -0.32270       -3.82548       -1.50452
H          0.68335        0.15133        0.88796
H          0.58644        0.90156       -0.71119
H          2.10636        0.17175       -0.17871
H         -0.52543       -1.26223       -0.78193
H          0.90657       -1.28348       -1.81059
H          2.40875       -1.71035        1.36623
H          2.94853       -3.81703        2.25623
H          0.49387       -5.80438       -0.25418
