28

O          1.38613        1.98737       -0.37049
C          2.35124        1.25644       -0.25678
O          2.83010        0.47118       -1.24109
C          3.12943        1.12640        0.98377
C          4.49246        1.46052        0.91882
C          5.27093        1.44758        2.07324
C          4.69465        1.11334        3.29470
C          3.33898        0.78973        3.36462
C          2.54149        0.78566        2.20850
C          1.10528        0.45980        2.39509
O          0.54911        0.83346        3.42420
C          0.32732       -0.34370        1.42767
C         -0.98580        0.04726        1.14558
C         -1.74391       -0.67478        0.22580
C         -1.19313       -1.78889       -0.39441
O         -1.96746       -2.45673       -1.29453
C          0.10116       -2.20702       -0.09853
C          0.86424       -1.48597        0.82380
H          3.57639       -0.10408       -0.99084
H          4.94081        1.77838       -0.02043
H          6.31935        1.72898        2.02647
H          5.29285        1.12702        4.20238
H          2.89845        0.55568        4.33285
H         -1.41106        0.92560        1.62453
H         -2.75603       -0.36175       -0.01126
H         -1.43727       -3.15488       -1.71048
H          0.52334       -3.08821       -0.56957
H          1.86278       -1.83158        1.06889
