34

O          0.97514        0.12728       -0.58006
C          2.13111        0.12181       -0.18296
C          3.13153       -0.96842       -0.52708
C          4.05376       -0.58414       -1.69166
C          5.21090        0.32092       -1.32738
C          6.06246        0.02213       -0.25388
C          7.08586        0.90071        0.11244
C          7.27536        2.07290       -0.60984
O          8.23409        2.97658       -0.25921
C          6.48370        2.36014       -1.71243
C          5.46127        1.48132       -2.07710
C          2.60086        1.26337        0.61622
C          2.82665        1.13504        1.98663
O          2.43080        0.03957        2.70160
C          3.46029        2.16003        2.68292
C          3.85518        3.30825        1.99948
O          4.52516        4.26746        2.70109
C          3.56507        3.47792        0.64754
C          2.90013        2.46328       -0.03352
O          2.57917        2.69413       -1.34423
H          3.67738       -1.27125        0.37127
H          2.53960       -1.84307       -0.82636
H          4.47902       -1.49511       -2.13071
H          3.45223       -0.11208       -2.47977
H          5.93258       -0.89233        0.31961
H          7.71471        0.65557        0.96226
H          8.65413        2.67277        0.56229
H          6.64661        3.27349       -2.27729
H          4.83620        1.73630       -2.93059
H          1.59688       -0.29221        2.31854
H          3.64983        2.06808        3.74840
H          4.84746        4.93755        2.07413
H          3.84950        4.37907        0.11438
H          1.85764        2.08542       -1.59844
