62

C          1.04945        0.46593        0.41976
C          0.90228        0.85909       -1.04219
C          1.33447       -0.24678       -2.00870
C          0.54394       -1.55465       -1.88971
C         -0.96357       -1.41583       -2.12840
C         -1.34044       -0.92099       -3.52891
C         -0.90291       -1.85201       -4.66505
C         -1.54854       -3.24171       -4.62436
C         -3.07500       -3.23060       -4.76256
C         -3.58354       -2.60022       -6.06417
C         -3.08364       -3.29186       -7.33826
C         -3.45912       -4.77436       -7.44743
C         -4.96315       -5.05312       -7.37228
C         -5.75859       -4.48674       -8.55281
C         -5.62579       -5.30978       -9.83895
C         -6.29254       -6.68448       -9.77370
O         -7.71421       -6.53433       -9.62845
C         -8.21693       -6.71760       -8.38755
O         -7.62690       -7.02771       -7.36723
C         -9.64704       -6.44006       -8.44529
C        -10.55797       -7.45261       -8.73117
C        -11.91311       -7.13873       -8.76354
C        -12.29395       -5.82795       -8.50693
N        -11.42509       -4.82996       -8.22261
C        -10.11162       -5.15971       -8.19220
H          0.37558       -0.35385        0.68593
H          0.80616        1.31527        1.06539
H          2.07574        0.15464        0.63868
H         -0.13288        1.15882       -1.23890
H          1.51948        1.74550       -1.23046
H          1.26586        0.13490       -3.03418
H          2.39608       -0.46791       -1.84289
H          0.96525       -2.28287       -2.59233
H          0.70277       -1.98932       -0.89629
H         -1.43904       -2.38470       -1.93770
H         -1.39425       -0.73373       -1.38682
H         -2.42561       -0.77234       -3.56830
H         -0.90768        0.07093       -3.70042
H         -1.12690       -1.36706       -5.62190
H          0.18621       -1.96913       -4.65331
H         -1.11103       -3.85511       -5.42036
H         -1.28253       -3.75099       -3.69138
H         -3.44271       -4.26000       -4.68025
H         -3.52130       -2.69780       -3.91515
H         -4.67937       -2.59428       -6.04900
H         -3.29629       -1.54336       -6.10229
H         -3.46821       -2.74596       -8.20665
H         -1.99315       -3.20262       -7.40437
H         -3.05253       -5.17405       -8.38318
H         -2.96127       -5.33499       -6.64737
H         -5.10840       -6.13487       -7.29479
H         -5.37192       -4.64255       -6.44260
H         -6.81326       -4.41429       -8.26856
H         -5.44995       -3.45707       -8.76068
H         -6.09720       -4.73660      -10.64697
H         -4.57011       -5.42839      -10.10508
H         -6.12864       -7.20456      -10.72371
H         -5.86140       -7.32163       -8.99440
H        -10.21797       -8.46611       -8.92106
H        -12.65680       -7.89737       -8.98085
H        -13.34117       -5.53784       -8.52143
H         -9.43522       -4.34393       -7.95378
