53

O          1.49170       -1.24695       -0.92466
C          1.13875       -0.81032       -2.23281
C          1.45261        0.66706       -2.48691
O          2.84740        0.97227       -2.47691
C          3.44036        1.25363       -1.20693
C          2.95077        2.53880       -0.49287
N          1.66178        2.47346        0.18225
C          1.35112        1.32068        1.01038
C          0.87468        1.58614        2.44722
N          0.04051        2.76358        2.67617
C         -1.43068        2.59472        2.62165
C         -2.02782        2.51147        1.21193
C         -2.61160        3.65910        0.64012
C         -3.15160        3.62978       -0.64799
C         -3.12748        2.45058       -1.38674
C         -2.56372        1.30187       -0.83844
C         -2.01680        1.33368        0.44723
C         -1.94624        1.55772        3.65289
C         -3.05324        0.72227        3.42193
C         -3.45529       -0.22757        4.36864
C         -2.78097       -0.32984        5.58117
Cl        -3.26311       -1.51214        6.73368
C         -1.72414        0.52546        5.86639
C         -1.32163        1.46856        4.91665
C          0.59421        3.93168        1.98912
C          1.01796        3.73721        0.51429
H          2.45005       -1.41093       -0.94506
H          1.66193       -1.44922       -2.95083
H          0.06261       -0.97500       -2.34745
H          1.10612        0.90014       -3.50007
H          0.88809        1.31747       -1.82122
H          3.41527        0.37259       -0.56513
H          4.50480        1.40691       -1.42431
H          3.70677        2.82402        0.24893
H          2.91674        3.33176       -1.25030
H          0.57816        0.75110        0.49253
H          2.20547        0.64250        1.09575
H          1.77736        1.73008        3.05752
H          0.42101        0.66953        2.83975
H         -1.83581        3.52592        3.04825
H         -2.63837        4.59467        1.19516
H         -3.58797        4.52934       -1.07445
H         -3.54820        2.42667       -2.38838
H         -2.54740        0.37743       -1.40967
H         -1.59027        0.41925        0.85412
H         -3.62331        0.78330        2.49794
H         -4.29362       -0.88276        4.14840
H         -1.20293        0.46375        6.81767
H         -0.49025        2.12935        5.15851
H          1.49581        4.22327        2.54573
H         -0.07675        4.79534        2.07277
H          1.66019        4.58494        0.24180
H          0.13497        3.83009       -0.12574
