29

C          1.35930        0.24551       -0.01871
C          0.95757        1.66371       -0.30162
O          0.78541        2.12490       -1.42177
O          0.80410        2.33860        0.90345
C          0.25492        3.62611        0.81064
C          1.11475        4.67028        1.17383
C          0.64640        5.98332        1.19615
C         -0.67975        6.25389        0.86653
C         -1.53909        5.21090        0.50980
C         -1.08788        3.87977        0.48530
C         -2.09071        2.85037        0.09802
O         -3.14725        3.11747       -0.45747
O         -1.69775        1.60756        0.45149
C         -2.55182        0.55157        0.00250
S         -3.85624        0.22472        1.22275
C         -4.56466       -1.17844        0.32731
O         -3.17876       -0.34294        2.52324
H          1.01497       -0.39423       -0.83653
H          0.87328       -0.10793        0.89614
H          2.44376        0.17697        0.08024
H          2.14713        4.46173        1.44227
H          1.31315        6.79529        1.47694
H         -1.04976        7.27651        0.89045
H         -2.57348        5.44329        0.25974
H         -2.99120        0.76629       -0.97782
H         -1.93428       -0.34686       -0.09401
H         -3.81470       -1.96630        0.22011
H         -5.41417       -1.56224        0.89641
H         -4.90609       -0.85145       -0.65758
