29

C          1.07728        0.28414        0.04665
C          0.34645       -0.47497        0.88579
C         -1.15306       -0.36925        0.84071
C          1.03889       -1.38689        1.90657
C          1.92094       -2.45773        1.23383
C          1.08968       -3.58196        0.61611
C          0.20355       -4.27687        1.65959
C         -0.68860       -5.32423        0.98926
O          1.04402       -4.95311        2.60061
C         -0.65216       -3.27094        2.44283
C          0.14701       -2.07075        2.96463
H          0.61226        0.94650       -0.67766
H          2.16276        0.26694        0.05826
H         -1.59436       -1.29160        0.45587
H         -1.56536       -0.14908        1.82927
H         -1.48563        0.43822        0.17810
H          1.71204       -0.72490        2.47233
H          2.60104       -2.88078        1.98516
H          2.56680       -2.02001        0.46434
H          1.78081       -4.30845        0.17040
H          0.47500       -3.18018       -0.19843
H         -1.28501       -5.86323        1.73374
H         -1.36953       -4.86690        0.26356
H         -0.08562       -6.07658        0.46829
H          1.56992       -5.61060        2.11356
H         -1.48074       -2.92274        1.82070
H         -1.10796       -3.77034        3.30801
H          0.79733       -2.42607        3.77615
H         -0.53128       -1.34785        3.43185
