19

C          0.92128        0.31680        0.04318
C          0.42226       -0.16256        1.37750
O         -0.32813        0.54477        2.05451
N          0.73091       -1.41055        1.83438
C          1.66473       -2.36969        1.40782
C          2.80253       -2.07602        0.65292
C          3.69119       -3.09038        0.27980
C          3.45083       -4.40764        0.66284
C          2.33255       -4.70113        1.43678
Cl         2.03001       -6.32588        1.91666
C          1.45149       -3.68985        1.82289
H          0.20470        1.04028       -0.35957
H          0.98084       -0.50207       -0.67772
H          1.88682        0.81331        0.15794
H          0.14845       -1.66282        2.62593
H          3.06129       -1.06026        0.37723
H          4.57789       -2.84736       -0.30140
H          4.14020       -5.19333        0.36560
H          0.58225       -3.94561        2.42352
