17

N          0.90878       -0.00198        0.04093
C          2.16975       -0.00198        0.04093
C          3.68975       -0.00198        0.04093
C          4.20682       -1.15881       -0.82440
N          3.81407       -1.02438       -2.23448
C          4.36233       -2.10416       -3.07845
C          3.70838       -3.44741       -2.79894
O          2.66233       -3.85701       -3.27995
O          4.35723       -4.16997       -1.86289
H          4.05379        0.96001       -0.33656
H          4.04676       -0.11863        1.06990
H          5.30086       -1.17280       -0.75464
H          3.83090       -2.10031       -0.40862
H          2.79312       -1.04168       -2.32735
H          4.16694       -1.86340       -4.12993
H          5.45016       -2.18453       -2.98100
H          3.79137       -4.96253       -1.74594
