22

C          0.55688        0.31290       -0.03147
C          0.40724       -0.49057       -1.30883
O          1.06616       -1.75236       -1.27034
C          2.48410       -1.81588       -1.44591
C          3.02444       -0.91579       -2.55513
C          3.25388       -1.62742       -0.13143
C          2.74966       -2.51685        0.99960
O          2.97483       -3.88810        0.70028
H          0.39368       -0.31371        0.85035
H         -0.16191        1.13798       -0.01330
H          1.55435        0.75084        0.04739
H         -0.65752       -0.71574       -1.43700
H          0.69817        0.09386       -2.18651
H          2.66849       -2.84563       -1.77689
H          2.96699        0.14230       -2.27997
H          4.07340       -1.14776       -2.76695
H          2.44832       -1.04968       -3.47677
H          4.31234       -1.85112       -0.31585
H          3.20503       -0.58585        0.19621
H          3.29834       -2.28584        1.91796
H          1.68529       -2.36886        1.20562
H          2.27565       -4.15774        0.07908
