16

O          1.20671        0.15607       -0.09844
C          0.48806        0.79058        0.95271
C          0.84170        0.19337        2.28942
C          0.76509       -1.19330        2.49015
C          1.07633       -1.74875        3.73200
C          1.45668       -0.92446        4.78862
C          1.52506        0.45566        4.60506
C          1.21759        1.01272        3.36209
H          2.05143       -0.14861        0.27562
H          0.73614        1.85654        0.92130
H         -0.58486        0.68551        0.76347
H          0.46022       -1.84592        1.67399
H          1.01747       -2.82476        3.87534
H          1.69528       -1.35664        5.75693
H          1.81497        1.09890        5.43182
H          1.27172        2.09249        3.23964
