24

O          1.04181       -0.05972        0.39403
N          2.25151       -0.08138        0.30861
N          2.96546        1.10200        0.41582
C          4.30360        1.12317        0.13114
N          4.97366        2.36103        0.13026
C          4.56887        3.54056        0.72168
C          5.56720        4.45030        0.46419
N          6.55891        3.88369       -0.28603
C          6.18911        2.63326       -0.45615
N          5.00021        0.05659       -0.14210
C          4.34336       -1.18924       -0.08339
C          5.09519       -2.35857       -0.19757
C          4.47398       -3.61118       -0.12673
C          3.09051       -3.69817        0.04493
Cl         2.33766       -5.24220        0.12840
C          2.31912       -2.54650        0.16416
C          2.96160       -1.30752        0.11227
H          2.39841        1.93397        0.46572
H          3.66682        3.62000        1.30949
H          5.62885        5.48074        0.79155
H          6.73573        1.88365       -1.01424
H          6.17309       -2.29528       -0.32730
H          5.07649       -4.51327       -0.20204
H          1.24394       -2.60946        0.31100
