20

C         -1.83018       -1.56522        0.05056
C         -0.51177       -0.83415        0.02232
C         -0.54723        0.57844        0.02321
O         -1.71053        1.30063        0.02572
C          0.60788        1.36058        0.02509
C          1.85269        0.74105        0.01420
N          3.07346        1.55640        0.02209
O          2.94349        2.78917        0.03487
O          4.15882        0.96322        0.01518
C          1.94440       -0.65361       -0.01129
C          0.76980       -1.44241       -0.01471
N          0.98504       -2.90723       -0.06959
O          2.11805       -3.32536        0.19970
O          0.04721       -3.63766       -0.41154
H         -2.45279       -1.17023        0.86198
H         -2.35295       -1.41832       -0.90116
H         -1.77681       -2.63308        0.24618
H         -2.48820        0.72864       -0.06768
H          0.51233        2.44532        0.03401
H          2.92722       -1.12548       -0.03196
