62

C          0.35853       -0.34454        0.11151
C          0.65934        1.14291        0.02243
C          1.27463        1.57664       -1.31257
O          0.63526        1.40539       -2.34999
N          2.51721        2.25175       -1.23229
C          3.55437        1.54312       -0.49524
C          4.57186        2.20214        0.19355
C          5.57986        1.48997        0.86008
C          5.55197        0.10091        0.90246
C          4.53576       -0.57881        0.24684
C          3.56859        0.13575       -0.46607
C          2.98426        3.14576       -2.41468
C          3.81538        2.31287       -3.45428
O          5.01246        1.69589       -2.96793
C          6.19220        2.47927       -3.02915
C          3.77184        4.41461       -1.98328
C          2.92566        5.34610       -1.12238
N          1.74444        5.82635       -1.83223
C          0.97487        6.82986       -1.06916
C          0.19187        6.43427        0.20675
N          0.98622        5.87551        1.27128
N          2.08260        6.49583        1.80783
N          2.68285        5.67823        2.57701
N          2.02074        4.48079        2.55582
C          2.44774        3.30047        3.26211
C          3.94717        3.21081        3.48386
C          0.89633        4.58853        1.76037
O          0.05122        3.74765        1.52069
C          0.92901        4.73204       -2.36266
C          1.78524        3.78339       -3.21303
H          0.24562       -0.80948       -0.87180
H         -0.55887       -0.51515        0.68429
H          1.15960       -0.86823        0.64362
H         -0.29002        1.68720        0.09790
H          1.26341        1.45936        0.87451
H          4.59512        3.27979        0.27236
H          6.37818        2.02891        1.36414
H          6.32122       -0.44901        1.43725
H          4.50165       -1.66490        0.26440
H          2.84441       -0.44042       -1.03637
H          3.18638        1.48715       -3.80680
H          4.05653        2.91679       -4.33773
H          6.29936        2.97668       -3.99605
H          6.23174        3.21167       -2.22319
H          7.04714        1.81263       -2.88184
H          4.68881        4.20026       -1.44724
H          4.10104        4.96555       -2.87696
H          2.65966        4.80022       -0.21988
H          3.54788        6.19958       -0.82815
H          1.65387        7.65469       -0.81567
H          0.24836        7.27643       -1.76220
H         -0.29412        7.32881        0.61341
H         -0.60447        5.72779       -0.05185
H          1.92197        3.27556        4.22166
H          2.11058        2.42792        2.69410
H          4.25908        3.83997        4.32165
H          4.23545        2.17845        3.70950
H          4.50728        3.54223        2.60686
H          0.14694        5.14804       -3.01029
H          0.42559        4.18277       -1.56149
H          2.19098        4.36373       -4.05689
H          1.15543        3.03765       -3.70281
