14

Cl         1.13557        0.20715        0.06289
C          2.84329        0.09650        0.06483
C          3.49042       -1.12183        0.06426
N          4.83798       -1.20495        0.06597
C          5.49261       -0.01247        0.06813
C          6.86609        0.08037        0.07006
N          7.56457        1.23495        0.07204
C          6.82320        2.34597        0.07208
N          5.48709        2.39343        0.07048
C          4.83356        1.23309        0.06855
N          3.49788        1.27515        0.06694
H          2.95078       -2.06171        0.06244
H          7.47006       -0.82299        0.07004
H          7.35058        3.29431        0.07351
