38

O          0.10025       -2.59438        1.40455
C          0.12910       -3.90145        0.85855
C          1.07469       -4.09771       -0.30802
C          1.31286       -5.42291       -0.71020
C          2.14450       -5.70758       -1.78845
C          2.75807       -4.66690       -2.48109
C          2.52143       -3.34041       -2.10922
C          1.68027       -3.05201       -1.03172
O          1.27648       -1.80068       -0.69908
C          2.12095       -0.67097       -0.79380
O          1.39894        0.45810       -1.29552
C          0.15349        0.69232       -0.60658
C         -0.98902       -0.15790       -1.22756
O         -1.33847       -1.34163       -0.51395
C          0.29603        0.76083        0.93430
O         -0.83761        0.23460        1.63506
C          1.62431        0.25343        1.55148
O          1.34013       -0.64457        2.63967
C          2.69285       -0.28769        0.58018
O          3.45101       -1.33915        1.19309
H         -0.35259       -2.04887        0.71593
H          0.43191       -4.56422        1.67510
H         -0.89005       -4.16392        0.55675
H          0.82791       -6.24307       -0.18239
H          2.29958       -6.73852       -2.09479
H          3.39533       -4.89160       -3.33225
H          2.96235       -2.55683       -2.71816
H          2.95530       -0.83604       -1.48143
H         -0.09589        1.71447       -0.92284
H         -1.89517        0.45213       -1.30130
H         -0.70864       -0.46937       -2.24077
H         -2.18504       -1.64620       -0.88771
H          0.26220        1.83121        1.17658
H         -0.46577       -0.38772        2.30115
H          2.08440        1.11674        2.05060
H          1.39232       -1.55499        2.26831
H          3.39499        0.53800        0.40355
H          4.02189       -1.74402        0.51859
