34

C          1.16427       -0.11235       -0.20325
C          0.49840        0.93116       -1.10357
N          1.10708        0.83877       -2.43566
C         -1.08088        0.90503       -1.14043
C         -1.69625        0.11105        0.04925
C         -3.23340        0.15683        0.03084
C         -3.68936        1.61833        0.13651
C         -3.14164        2.42375       -1.05202
C         -3.66015        1.81154       -2.36048
C         -3.19944        0.34885       -2.47225
C         -3.74841       -0.44856       -1.28298
C         -1.66004        0.29286       -2.45368
C         -1.60426        2.37027       -1.04651
H          0.90336       -1.13452       -0.49285
H          0.88569        0.04203        0.84469
H          2.25694       -0.02115       -0.24068
H          0.80916        1.90383       -0.69982
H          0.81152        1.62117       -3.01184
H          2.12409        0.89677       -2.36240
H         -1.38131       -0.93921        0.00785
H         -1.34090        0.51979        1.00311
H         -3.62819       -0.41643        0.87726
H         -4.78501        1.66818        0.15202
H         -3.33785        2.05280        1.08044
H         -3.47356        3.46504       -0.97248
H         -3.29167        2.39010       -3.21640
H         -4.75559        1.86397       -2.38950
H         -3.57195       -0.08045       -3.40925
H         -4.84524       -0.43665       -1.29772
H         -3.44064       -1.49841       -1.36199
H         -1.29728        0.84194       -3.33169
H         -1.32715       -0.74689       -2.56391
H         -1.23538        2.83847       -0.12412
H         -1.21219        2.96582       -1.88094
