18

N          1.01741        0.17618       -0.10554
C          0.35607        0.51563       -1.24977
N          0.78982        0.16434       -2.42432
S         -0.22521        0.70449       -3.60036
O          0.40981        1.74620       -4.37767
O         -0.92408       -0.40863       -4.20581
C         -1.34628        1.48052       -2.52047
C         -2.49501        2.17979       -2.83160
C         -3.21280        2.71655       -1.76148
C         -2.76495        2.54386       -0.43610
C         -1.59259        1.82885       -0.15788
C         -0.89558        1.29686       -1.22773
H          0.46859        0.01390        0.73054
H          1.73787       -0.52706       -0.24832
H         -2.82035        2.30754       -3.85873
H         -4.12537        3.27928       -1.95090
H         -3.33837        2.97885        0.38097
H         -1.24809        1.71316        0.86345
