29

C          1.02657        0.39622        0.03657
C          0.49906        0.16169        1.45933
C          1.13882        1.24238        2.36906
C         -1.01917        0.38958        1.48311
C          0.92012       -1.22082        2.04846
C          0.49906       -2.59786        1.44667
C          1.02658       -2.81933        0.02182
C          1.13883       -3.68685        2.34645
C         -1.01916       -2.82597        1.46835
H          0.93961        1.45228       -0.24614
H          0.45923       -0.16537       -0.70875
H          2.08310        0.12036       -0.04783
H          0.89219        2.25355        2.02492
H          0.78468        1.15090        3.40228
H          2.23137        1.15559        2.37932
H         -1.53031       -0.17183        0.69806
H         -1.44973        0.10889        2.45023
H         -1.26130        1.44514        1.31012
H          2.02011       -1.22102        2.09446
H          0.59682       -1.22565        3.10087
H          2.08312       -2.54269       -0.06004
H          0.93963       -3.87275       -0.27057
H          0.45924       -2.25092       -0.71832
H          0.78469       -3.60485        3.38046
H          0.89221       -4.69481        1.99304
H          2.23138       -3.60015        2.35751
H         -1.44972       -2.55416        2.43801
H         -1.53030       -2.25738        0.68848
H         -1.26128       -3.87989        1.28568
