32

C          1.84577       -0.23544        0.53084
C          1.13379        1.00040        0.08686
O          0.11109        0.97751       -0.57981
O          1.69653        2.11690        0.61437
C          0.83441        3.25491        0.78266
C          0.74662        4.19384       -0.41919
C         -0.10808        3.76088       -1.60821
S         -1.87201        3.93547       -1.44897
O         -2.15918        5.29531       -1.03561
O         -2.48266        3.37509       -2.63996
C         -2.43252        2.86527       -0.13726
C         -2.63027        1.49674       -0.08376
C         -2.98162        1.04558        1.22043
C         -3.12447        2.09073        2.11053
S         -3.49485        2.12974        3.84037
N         -2.34191        3.08309        4.60937
O         -4.76416        2.80257        3.98720
O         -3.26105        0.78781        4.31585
S         -2.87571        3.60134        1.34899
H          1.61625       -1.04782       -0.16517
H          1.48982       -0.50692        1.52854
H          2.92587       -0.08162        0.53726
H         -0.13441        2.92659        1.14954
H          1.27747        3.82280        1.61001
H          0.38574        5.16774       -0.06659
H          1.76778        4.35005       -0.78994
H          0.13458        4.44193       -2.43673
H          0.12890        2.76624       -1.98066
H         -2.45017        0.84399       -0.93166
H         -3.10874        0.00658        1.50399
H         -2.82342        3.75250        5.21315
H         -1.71122        2.47851        5.13786
