40

C          1.04734       -0.23452        0.31576
C          0.78373        0.85616       -0.70103
O          1.37775        0.47185       -1.94980
C          2.48531        1.15813       -2.33587
O          2.98268        2.09612       -1.72360
C          3.00860        0.69118       -3.69350
N          2.56141       -0.62703       -4.12689
C          1.52891       -0.95854       -4.95410
O          1.26498       -2.15120       -5.11178
C          0.75569        0.13279       -5.67787
O         -0.01869        0.87250       -4.73165
C         -1.26996        1.19616       -5.13477
O         -1.79790        0.95377       -6.20465
C         -1.86993        2.01249       -4.07578
C         -2.31136        1.39380       -2.90091
C         -2.88221        2.16570       -1.88608
C         -2.99530        3.55017       -2.03789
C         -2.56036        4.16797       -3.21353
C         -2.00182        3.39365       -4.23308
O         -1.75622        4.01532       -5.47057
C         -0.59153        4.75287       -5.62194
C          0.66793        3.96011       -5.43005
O         -0.59916        5.91101       -6.02284
H          0.65633       -1.19268       -0.04260
H          0.57523        0.00275        1.27297
H          2.12273       -0.36525        0.47134
H         -0.29235        0.95120       -0.86424
H          1.14231        1.82468       -0.33645
H          2.73282        1.44401       -4.43517
H          4.09952        0.63214       -3.62447
H          2.95577       -1.43297       -3.65569
H          1.45993        0.80718       -6.17546
H          0.14433       -0.34473       -6.45152
H         -2.23002        0.31563       -2.78103
H         -3.25118        1.68762       -0.98055
H         -3.45329        4.14504       -1.24969
H         -2.69750        5.23888       -3.34452
H          0.68317        3.13290       -6.14371
H          1.52942        4.59739       -5.65274
H          0.76644        3.60574       -4.40322
