42

C          0.79696        0.12564       -0.18321
C          0.42532       -0.65495        1.03212
C         -0.32751       -0.20337        2.04463
C         -0.46297       -1.20361        3.14294
C          0.02783       -2.51031        2.49078
C          0.67811       -3.43011        3.50001
C          0.31593       -4.70553        3.71595
C          0.93381       -5.72363        4.68083
C         -0.14670       -6.05777        5.73626
C          1.21015       -7.00917        3.86852
C          2.24930       -5.30232        5.43184
C          3.47571       -5.06588        4.55085
O          2.07555       -4.15511        6.27081
C          0.93489       -2.06326        1.28892
C          2.43707       -2.01615        1.62017
C          0.71160       -2.99837        0.09073
H          0.38180        1.13852       -0.15090
H          0.41794       -0.36038       -1.08686
H          1.88390        0.21910       -0.26678
H         -0.76235        0.78598        2.09611
H         -1.50635       -1.29833        3.46206
H          0.13943       -0.89879        4.00566
H         -0.86414       -3.01230        2.08391
H          1.49962       -2.98779        4.05744
H         -0.52321       -5.09110        3.13278
H         -1.05301       -6.46355        5.27058
H          0.21765       -6.80873        6.44704
H         -0.44614       -5.17404        6.31055
H          1.87277       -6.81675        3.01721
H          1.67721       -7.77893        4.49355
H          0.28438       -7.43655        3.46409
H          2.51661       -6.11554        6.11900
H          3.30608       -4.29390        3.79813
H          4.31676       -4.71630        5.16027
H          3.78858       -5.98015        4.03897
H          1.19697       -3.77616        6.10174
H          2.83403       -3.01986        1.80644
H          3.01748       -1.59861        0.78958
H          2.64047       -1.40011        2.50361
H         -0.33165       -2.97979       -0.24547
H          1.33638       -2.71186       -0.76292
H          0.96062       -4.03360        0.34971
