67

C          1.24248       -0.27954       -0.71604
C          1.19562       -1.39232        0.31940
C          1.61234       -0.92142        1.71465
C          0.74457        0.20444        2.28644
C         -0.73967       -0.15673        2.40079
C         -1.00950       -1.32402        3.35458
C         -0.58166       -1.03608        4.79734
C         -1.29494        0.17917        5.40093
C         -2.81649        0.01169        5.43804
C         -3.25202       -1.18125        6.29044
C         -2.84437       -1.02249        7.75739
C         -3.51745        0.18745        8.41229
C         -5.04600        0.09091        8.36855
C         -5.56415       -1.19894        9.01715
C         -5.08088       -1.35655       10.46365
C         -5.41294       -0.13409       11.31552
C         -6.91572        0.10559       11.37075
C         -7.57859       -0.92620       12.27544
P         -6.96859       -0.87162       13.99992
O         -6.92498        0.66421       13.96374
O         -8.45991       -1.34049       14.53911
C         -9.44164       -0.33791       14.77085
O         -6.39193       -0.82003       15.63017
C         -4.98034       -0.78658       15.73042
H          0.51345        0.50667       -0.49693
H          1.00942       -0.67563       -1.70831
H          2.23782        0.17455       -0.75197
H          0.18996       -1.82754        0.34409
H          1.86879       -2.19828        0.00653
H          1.60387       -1.78080        2.39526
H          2.65314       -0.57719        1.68261
H          1.14039        0.48970        3.26784
H          0.84412        1.10290        1.66837
H         -1.29441        0.73192        2.72480
H         -1.15042       -0.39847        1.41561
H         -2.07692       -1.57052        3.31929
H         -0.50036       -2.22886        3.00506
H         -0.76360       -1.92729        5.40672
H          0.50060       -0.87744        4.85121
H         -0.90310        0.35725        6.40874
H         -1.04793        1.08749        4.84423
H         -3.26905        0.93828        5.81019
H         -3.21925       -0.10433        4.42681
H         -4.33457       -1.31067        6.19874
H         -2.83218       -2.11558        5.90145
H         -3.09203       -1.94231        8.29654
H         -1.75933       -0.92997        7.85967
H         -3.16341        0.26972        9.44722
H         -3.19968        1.12017        7.93770
H         -5.47672        0.97296        8.85607
H         -5.41065        0.14701        7.33657
H         -6.65667       -1.21443        8.96635
H         -5.25377       -2.07769        8.44154
H         -5.52418       -2.26100       10.89437
H         -4.00006       -1.52396       10.49530
H         -4.99079       -0.27271       12.31719
H         -4.92174        0.76589       10.93173
H         -7.10537        1.12158       11.73426
H         -7.38760        0.08614       10.38472
H         -8.65649       -0.73035       12.24020
H         -7.44873       -1.94699       11.90356
H         -9.29941        0.54252       14.13707
H        -10.42302       -0.75618       14.53146
H         -9.42300       -0.03895       15.82081
H         -4.54833       -1.61845       15.16720
H         -4.59731        0.16169       15.34566
H         -4.70038       -0.88667       16.78192
