29

O          1.15372        0.21634       -0.03055
C          0.54541        1.35066       -0.72253
C          0.98397        2.59938        0.11134
C          1.86836        2.47483        1.20739
C          2.25005        3.57887        1.97996
C          1.76025        4.84074        1.67362
Cl         2.23520        6.20004        2.61220
C          0.88211        5.00266        0.61045
C          0.49071        3.89429       -0.15231
C          1.14739        1.30542       -2.16145
C          1.34952        0.05978       -2.80151
C          1.85313       -0.03160       -4.10394
C          2.16761        1.12484       -4.80390
Cl         2.77864        1.02161       -6.40698
C          1.98856        2.36546       -4.20616
C          1.48774        2.45416       -2.89959
C         -1.05160        1.12572       -0.71182
Cl        -1.52631       -0.56078       -1.21837
Cl        -1.76194        1.33532        0.94697
Cl        -1.95167        2.23211       -1.82672
H          2.07211        0.14613       -0.34703
H          2.26374        1.50626        1.50909
H          2.92224        3.43885        2.82280
H          0.49127        5.98809        0.36773
H         -0.20193        4.08849       -0.96671
H          1.11422       -0.87551       -2.29238
H          1.99039       -1.00778       -4.56219
H          2.23371        3.27536       -4.74968
H          1.37805        3.45522       -2.49700
