21

C          0.78761       -0.09657        0.21455
C          0.54781       -1.39713       -0.49891
C          0.82268       -2.60501        0.15708
C          0.62846       -3.83672       -0.49327
S          0.99397       -5.30793        0.42400
O         -0.08205       -5.53810        1.36134
O          1.43552       -6.33658       -0.49700
O          2.28021       -4.93130        1.32597
C          0.21274       -3.89525       -1.83022
N         -0.11435       -5.08827       -2.49218
C         -0.11070       -2.68364       -2.45778
C          0.07700       -1.45202       -1.81648
Cl        -0.29455       -0.01671       -2.70398
H          0.96125       -0.25547        1.28442
H         -0.08118        0.56375        0.12973
H          1.66933        0.40227       -0.19999
H          1.17888       -2.58945        1.18609
H          2.25581       -5.49954        2.12449
H          0.41677       -5.90502       -2.17190
H         -0.10801       -5.02735       -3.50661
H         -0.51128       -2.69504       -3.46950
