42

C         -0.10472       -0.14818        0.10550
C          0.35922        0.24650        1.47088
C          0.54411       -0.56200        2.52688
N          0.34938       -1.91597        2.57263
C          0.27114       -2.75089        3.63989
O          0.65417       -3.91794        3.51528
N         -0.23153       -2.34783        4.83393
C         -1.18262       -1.36123        5.16923
C         -1.24339       -0.95530        6.50870
C         -2.12182        0.05538        6.90602
C         -2.96458        0.65162        5.97145
C         -2.94581        0.22113        4.64662
C         -2.06814       -0.79208        4.24979
C          1.04804        0.32236        3.63773
O          1.52453       -0.07305        4.68711
N          0.86888        1.63704        3.18292
C          0.41858        2.70303        4.00785
C          0.74499        2.74044        5.36909
C          0.27503        3.76757        6.19433
C         -0.53458        4.77151        5.67132
C         -0.86784        4.75258        4.32078
C         -0.39197        3.72874        3.49532
N          0.53022        1.59724        1.79916
C          1.40577        2.42401        0.96099
H         -0.94263        0.48118       -0.20894
H         -0.44089       -1.18828        0.06350
H          0.71006       -0.02648       -0.61124
H          0.44949       -2.42636        1.70659
H          0.09941       -2.91937        5.60223
H         -0.56989       -1.38602        7.24539
H         -2.13297        0.38645        7.94049
H         -3.63585        1.44999        6.27590
H         -3.61178        0.67631        3.91867
H         -2.10114       -1.12727        3.21838
H          1.37662        1.97843        5.82012
H          0.53671        3.77540        7.25016
H         -0.90882        5.56400        6.31365
H         -1.51076        5.52377        3.90597
H         -0.70139        3.72012        2.45416
H          1.44166        3.45964        1.31536
H          2.42922        2.02814        0.95913
H          1.04248        2.45199       -0.07478
