26

O          1.15707        0.27042        0.50900
C          2.28922        0.09842        0.08540
O          3.05270       -0.95565        0.44527
C          2.96218        1.01836       -0.90221
C          2.64977        0.60407       -2.34271
C          1.18384        0.89035       -2.59454
O          0.69691        1.98441       -2.82145
O          0.42243       -0.21264       -2.50673
C          3.49883        1.38028       -3.37979
C          5.01746        1.21610       -3.25496
C          5.48356       -0.20099       -3.43989
O          5.99602       -0.66581       -4.44230
O          5.27781       -0.97123       -2.35171
C          3.11374        1.05695       -4.80843
O          3.15322        1.83472       -5.74615
O          2.81935       -0.23900       -5.00455
H          3.93149       -0.98467        0.01892
H          2.62433        2.04068       -0.69215
H          4.03550        1.00981       -0.68969
H          2.79927       -0.47544       -2.46728
H         -0.50236        0.11039       -2.55780
H          3.27433        2.44947       -3.25388
H          5.52351        1.82042       -4.01957
H          5.39466        1.58821       -2.29701
H          5.60946       -1.84894       -2.65185
H          2.68568       -0.31273       -5.97529
