47

C          1.16669       -1.18762        0.01545
C          0.21041       -0.01919       -0.02225
C          0.90552        1.31106       -0.20130
C         -1.14626       -0.31523       -0.65112
C         -1.75751        0.66263       -1.57387
C         -2.37550        0.43099       -2.74365
Cl        -3.00530        1.75233       -3.66667
Cl        -2.58396       -1.15274       -3.39573
C         -1.05665        0.00737        0.82193
C         -1.27290       -0.96685        1.91741
O         -1.21251       -0.60439        3.07990
O         -1.63573       -2.19663        1.48481
C         -2.10004       -3.17637        2.45689
C         -1.34555       -3.25710        3.72779
N         -0.74645       -3.39264        4.71540
C         -3.61212       -3.09456        2.63098
C         -4.38026       -4.26946        2.67981
C         -5.77343       -4.20179        2.75532
C         -6.41782       -2.96597        2.78381
F         -7.75730       -2.96812        2.77981
C         -5.68011       -1.78445        2.79531
O         -6.15209       -0.49221        2.79281
C         -7.46439       -0.23064        3.08013
C         -8.17009        0.53584        2.15177
C         -9.49508        0.88653        2.40431
C        -10.10643        0.48023        3.59039
C         -9.38670       -0.25471        4.53435
C         -8.05570       -0.59379        4.28993
C         -4.28280       -1.86284        2.72721
H          0.66989       -2.13559        0.24255
H          1.64887       -1.29875       -0.96208
H          1.94565       -1.02874        0.76741
H          1.22977        1.44031       -1.23796
H          0.26371        2.15715        0.06737
H          1.78887        1.36722        0.44458
H         -1.34985       -1.35310       -0.90483
H         -1.69436        1.70592       -1.26592
H         -1.44038        0.98468        1.10854
H         -1.90282       -4.12741        1.94314
H         -3.90677       -5.24945        2.63912
H         -6.37022       -5.10962        2.77137
H         -7.68722        0.85838        1.23362
H        -10.04849        1.47600        1.67844
H        -11.14315        0.74322        3.78324
H         -9.86223       -0.56245        5.46160
H         -7.49377       -1.14928        5.03451
H         -3.73304       -0.92509        2.73306
