50

C          1.11438        0.81484       -0.20613
C          0.19933        1.86049        0.46465
C         -0.33991        1.36209        1.80075
C          0.77105        1.35892        2.84490
C          1.20160        2.79080        3.22049
C          1.15348        3.78106        2.02000
C          2.31038        4.78269        1.99886
C          2.52184        5.37315        3.37139
C          2.94629        4.34042        4.42239
C          2.54098        4.88696        5.79766
C          3.12313        4.05703        6.92614
C          2.91200        2.55955        6.75044
C          2.08587        2.16996        5.52612
C          2.46558        2.86452        4.17194
C          3.65101        2.07229        3.55728
C          0.93370        3.22025        0.58712
C          0.08835        4.22676       -0.23604
C         -0.62297        3.42144       -1.30211
C         -0.90718        2.16565       -0.53394
O         -1.86307        1.43115       -0.76159
H          1.17514        0.96519       -1.29103
H          0.73649       -0.20179       -0.05024
H          2.13549        0.85478        0.18744
H         -1.17686        1.98404        2.14292
H         -0.74381        0.34748        1.69217
H          1.61512        0.77847        2.46223
H          0.41522        0.83085        3.73699
H          0.37589        3.14898        3.85866
H          0.26025        4.38673        2.24294
H          3.23256        4.31961        1.63349
H          2.07698        5.59785        1.30283
H          3.28816        6.15677        3.31212
H          1.59837        5.87941        3.68136
H          4.04663        4.33781        4.41105
H          2.89469        5.92044        5.90771
H          1.44761        4.91980        5.88185
H          4.19958        4.25517        7.00480
H          2.68837        4.39155        7.87607
H          2.40380        2.17408        7.64479
H          3.88450        2.05578        6.72317
H          2.13277        1.07818        5.41958
H          1.03825        2.39270        5.76770
H          3.45667        0.99491        3.52919
H          3.86922        2.39142        2.53450
H          4.56515        2.19801        4.14893
H          1.91145        3.13547        0.09346
H          0.70503        5.02128       -0.66793
H         -0.67125        4.71052        0.39223
H          0.03689        3.19151       -2.14348
H         -1.53695        3.90745       -1.64852
