40

C          0.90384       -0.14309       -0.14190
C          0.15506       -0.57354        1.08291
O         -1.05820       -0.72340        1.11917
O          1.01342       -0.78348        2.11387
C          0.40116       -1.03860        3.37782
N          0.81310       -0.00994        4.29466
C          0.49017        1.29734        4.14691
O         -0.09415        1.82041        3.21210
N          0.88876        1.98461        5.25976
C          1.45997        1.13513        6.29084
C          2.91641        1.56369        6.54218
C          3.96124        0.63434        6.68535
C          5.24766        1.04842        7.04493
C          5.51429        2.39458        7.27851
C          4.50161        3.33564        7.13106
C          3.21971        2.92715        6.75868
C          0.55942        1.15778        7.54322
C          1.05282        1.48664        8.82104
C          0.21379        1.53139        9.93720
C         -1.13604        1.22730        9.80823
C         -1.64892        0.88078        8.56273
C         -0.81400        0.85181        7.44202
C          1.32855       -0.23415        5.54158
O          1.59303       -1.34125        5.99912
H          0.53492        0.83320       -0.46607
H          0.76563       -0.88833       -0.92851
H          1.97391       -0.05238        0.06748
H         -0.69415       -1.04731        3.34870
H          0.74102       -2.01833        3.72862
H          0.66771        2.96262        5.37079
H          3.79604       -0.43299        6.55250
H          6.03852        0.31137        7.16383
H          6.50866        2.70782        7.58567
H          4.70167        4.38619        7.32666
H          2.44076        3.68410        6.68972
H          2.10350        1.71788        8.98320
H          0.62184        1.80148       10.90813
H         -1.78571        1.25616       10.67867
H         -2.70259        0.63289        8.46101
H         -1.25873        0.58340        6.48558
