30

C          0.75088        0.04855        0.03992
C          0.02582        0.54923        1.05310
C         -1.45392        0.39776        1.18113
C          0.74233        1.33952        2.08445
O          1.66103        2.10398        1.83985
O          0.24671        1.02678        3.30656
C          0.89976        1.62211        4.43951
C          1.82040        0.60539        5.11699
C          3.02403        0.16468        4.27499
C          4.04728        1.26626        3.97547
C          4.81310        1.79604        5.18888
C          5.72777        0.75762        5.81858
H          0.29102       -0.52741       -0.75594
H          1.82659        0.19883       -0.01570
H         -1.70738       -0.26696        2.01268
H         -1.92293        1.37179        1.35689
H         -1.89665       -0.01899        0.27028
H          1.42192        2.54969        4.18321
H          0.10476        1.89838        5.14140
H          2.16097        1.00645        6.07732
H          1.23192       -0.29372        5.34092
H          3.52129       -0.66748        4.78612
H          2.66796       -0.24995        3.32477
H          4.76771        0.87799        3.24460
H          3.55532        2.11383        3.48983
H          5.42847        2.64309        4.86164
H          4.12250        2.18809        5.94263
H          6.41351        0.33804        5.07535
H          6.32792        1.21643        6.61055
H          5.15784       -0.06173        6.26547
