34

C          1.60752        0.25717       -0.06046
C          1.22156        1.69037        0.16978
O          1.18470        2.54481       -0.70450
O          0.91843        1.86743        1.51540
C          0.40867        3.13169        1.84167
C          1.28154        3.97097        2.54655
C          0.83941        5.21220        3.00215
C         -0.47386        5.61079        2.76580
C         -1.34478        4.77061        2.06607
C         -0.91995        3.51479        1.59606
C         -1.93923        2.70165        0.87359
O         -3.04233        3.13308        0.57596
O         -1.49516        1.45251        0.60924
C         -2.38499        0.63115       -0.14593
C         -3.51360        0.00595        0.67619
O         -4.68319        0.08819        0.29269
N         -3.17490       -0.69336        1.83106
C         -1.82456       -0.96244        2.29658
C         -4.26647       -1.12335        2.68491
H          1.13188       -0.10007       -0.97807
H          1.25044       -0.37445        0.75891
H          2.69320        0.17417       -0.13271
H          2.30385        3.65895        2.74307
H          1.51596        5.86685        3.54662
H         -0.82527        6.57512        3.12644
H         -2.36882        5.10176        1.89485
H         -2.81086        1.19776       -0.98304
H         -1.79756       -0.17955       -0.59121
H         -1.61606       -0.32390        3.15946
H         -1.75774       -2.01357        2.59438
H         -1.07565       -0.78951        1.52420
H         -4.84355       -0.24556        2.99237
H         -4.91824       -1.79841        2.12241
H         -3.88740       -1.63720        3.57248
