30

C          1.09196        0.02035        0.21045
C          0.61746       -0.44304       -1.16037
C          1.10473       -1.85641       -1.50233
C          2.36050       -2.07831       -1.98182
C          3.43084       -1.08979       -2.25505
O          4.61430       -1.33959       -2.41272
O          3.04227        0.19114       -2.32462
C          2.70401       -3.50526       -2.19114
O          3.70517       -3.92426       -2.75491
C          1.76761       -4.52894       -1.66425
N          0.59684       -4.24698       -1.20554
N          0.21660       -2.93253       -1.23059
C         -1.12536       -2.76854       -0.76723
C         -2.09233       -2.11223       -1.54645
C         -3.37705       -1.88127       -1.04638
C         -3.71757       -2.34263        0.22306
Cl        -5.28272       -2.01788        0.85841
C         -2.79664       -3.05867        0.98348
C         -1.50963       -3.27793        0.48517
H          0.69621       -0.62553        1.00126
H          0.73750        1.03859        0.40177
H          2.18305        0.02443        0.28679
H         -0.46819       -0.35516       -1.16627
H          0.89335        0.27363       -1.93730
H          3.87813        0.67467       -2.50047
H          2.13665       -5.56591       -1.69161
H         -1.83662       -1.75759       -2.54212
H         -4.09887       -1.33468       -1.64692
H         -3.06553       -3.43811        1.96531
H         -0.78963       -3.82853        1.08640
