10

O         -2.55739        0.00086       -0.00729
C         -1.33793        0.00037        0.00095
N         -0.56076       -1.11441       -0.00347
C          0.74766       -0.77292       -0.00334
O          1.71911       -1.49423       -0.01121
C          0.74819        0.77221        0.00617
O          1.72013        1.49290        0.00451
N         -0.55998        1.11456        0.01229
H         -0.91238       -2.05676       -0.01442
H         -0.91095        2.05722        0.01318
