37

N          1.07440        0.34274        0.05318
C          0.36613        1.47602       -0.32442
N          0.70099        2.09597       -1.47572
C          0.00013        3.19014       -1.84355
F          0.37486        3.76522       -2.99878
N         -1.05139        3.77412       -1.21524
C         -1.33450        3.12142       -0.07062
C         -0.70225        1.99199        0.42557
N         -1.29733        1.56205        1.59180
C         -2.27662        2.41266        1.79787
N         -2.32865        3.38762        0.83190
C         -3.37515        4.37871        0.73997
O         -2.82583        5.72118        0.63718
C         -3.81910        6.52144       -0.06837
C         -3.17731        7.86857       -0.53854
O         -4.03191        8.83347       -1.19570
P         -4.93644        8.05503       -2.44820
O         -6.13619        7.92755       -1.51013
O         -5.10698        9.46735       -3.22706
O         -5.84096        7.27658       -3.70070
C         -4.29836        5.53102       -1.13808
O         -3.39301        5.50286       -2.25053
C         -4.35686        4.19224       -0.42117
O         -4.11939        3.10232       -1.30566
H          0.57845       -0.24914        0.71247
H          1.54467       -0.10941       -0.71952
H         -2.98571        2.36030        2.61637
H         -3.93212        4.35864        1.68502
H         -4.63544        6.73367        0.63322
H         -2.75606        8.37108        0.33946
H         -2.32585        7.67042       -1.19975
H         -5.94109        9.86650       -2.91615
H         -5.42190        6.42313       -3.91650
H         -5.29135        5.72932       -1.53664
H         -2.49887        5.26876       -1.90814
H         -5.35647        4.03971        0.00210
H         -3.51343        3.41066       -2.00902
