64

O          0.93099       -0.04358        0.05777
P          2.47934       -0.04358        0.05777
O          2.60700        1.15866        1.20117
C          2.50998        2.47481        0.82208
C          3.30043        3.39072        1.51282
C          3.25685        4.74463        1.17338
C          2.41434        5.18358        0.15206
C          1.60787        4.27077       -0.52358
C          1.65178        2.91720       -0.18625
O          2.58374       -1.40611        1.04010
C          1.64654       -2.42077        1.01343
C          1.40715       -3.08001        2.21750
C          0.34413       -3.98249        2.32168
C         -0.47692       -4.23164        1.22178
C         -0.20361       -3.61946        0.00178
C          0.87691       -2.74096       -0.11043
O          4.20934       -0.04358        0.05777
C          4.89343       -1.00953       -0.62362
C          5.97176       -1.62100        0.01234
C          6.71408       -2.59043       -0.66304
C          6.38591       -2.93326       -1.97480
C          5.31861       -2.29908       -2.60899
O          5.08088       -2.65189       -3.91653
P          3.76338       -1.86736       -4.71753
O          4.62231       -0.61006       -4.94508
O          3.91362       -2.86286       -6.04869
C          4.87589       -3.81986       -6.21756
C          5.81913       -3.63788       -7.22505
C          6.83755       -4.57732       -7.39471
C          6.90517       -5.69409       -6.56005
C          5.93569       -5.89052       -5.57652
C          4.90325       -4.96526       -5.42119
O          2.44588       -1.08283       -5.51853
C          1.23336       -1.71361       -5.57075
C          0.51083       -1.57376       -6.75447
C         -0.73452       -2.18545       -6.88558
C         -1.26012       -2.92251       -5.82559
C         -0.54110       -3.04577       -4.63543
C          0.71033       -2.43973       -4.50378
C          4.56845       -1.33467       -1.93017
H          3.95539        3.05270        2.31102
H          3.87757        5.45874        1.70793
H          2.37648        6.23795       -0.10958
H          0.93311        4.61271       -1.30471
H          0.97765        2.24211       -0.70391
H          2.00851       -2.85120        3.09234
H          0.13096       -4.46150        3.27362
H         -1.33866       -4.88719        1.32038
H         -0.85891       -3.78877       -0.84891
H          1.03244       -2.24578       -1.06137
H          6.23460       -1.34355        1.02952
H          7.55873       -3.06816       -0.17147
H          6.97687       -3.67200       -2.51032
H          5.77654       -2.75964       -7.86327
H          7.58583       -4.43266       -8.16978
H          7.71307       -6.41204       -6.67772
H          5.99026       -6.75918       -4.92565
H          4.15426       -5.12461       -4.65238
H          0.92393       -0.99869       -7.57969
H         -1.29346       -2.08567       -7.81264
H         -2.23418       -3.39550       -5.92584
H         -0.96496       -3.61057       -3.80860
H          1.23549       -2.53391       -3.56136
H          3.77694       -0.77600       -2.41341
