41

O          1.12107        0.26711        0.23470
C          2.28416        0.11120        0.15640
N          3.44260       -0.06287        0.08361
C          4.18089        0.67126        1.03144
C          5.27769        1.41078        0.58179
C          6.09143        2.11156        1.47773
C          5.86040        2.05723        2.86131
C          6.75503        2.80685        3.86437
C          8.12282        2.13214        4.06806
C          8.50837        1.68863        5.34197
C          9.79030        1.16408        5.56276
C         10.73096        1.06033        4.53006
N         12.00288        0.55585        4.87642
C         12.75488        0.39696        3.99081
O         13.50330        0.24494        3.09605
C         10.33781        1.48718        3.25366
C          9.05718        2.00563        3.02749
C          6.79947        4.32456        3.60105
C          7.98987        5.06272        3.54366
C          7.97715        6.43461        3.26619
C          6.78161        7.12959        3.06155
N          6.89258        8.51054        2.79955
C          5.93206        9.03280        2.37588
O          4.96378        9.55594        1.96170
C          5.58457        6.40638        3.17348
C          5.59411        5.03096        3.44062
C          4.75662        1.31631        3.31413
C          3.92923        0.63408        2.41147
H          5.50810        1.44248       -0.48099
H          6.90774        2.70409        1.07345
H          6.24540        2.73632        4.83861
H          7.82676        1.76566        6.18700
H         10.06613        0.84465        6.56638
H         11.01920        1.44868        2.40609
H          8.82722        2.35632        2.02604
H          8.95776        4.59800        3.71254
H          8.92387        6.96907        3.21198
H          4.61789        6.89144        3.05561
H          4.63883        4.51259        3.51470
H          4.52352        1.26383        4.37604
H          3.09042        0.06199        2.80262
