28

C          1.11860        0.19602       -0.44438
C          0.73245       -1.21458       -0.86486
C          1.14733       -2.28831        0.14502
C          0.57617       -2.11682        1.55639
C         -0.94767       -2.25378        1.66245
C         -1.48943       -3.67196        1.44792
C         -1.04359       -4.70644        2.48333
C         -1.81221       -4.59226        3.78550
O         -2.94199       -5.06672        3.90997
N         -1.20713       -3.98256        4.84609
O         -0.12269       -3.11797        4.61942
H          0.54472        0.52529        0.42700
H          0.91556        0.90099       -1.25663
H          2.18419        0.25670       -0.20093
H         -0.34583       -1.25893       -1.05078
H          1.22084       -1.43681       -1.82147
H          0.87237       -3.27249       -0.25113
H          2.24243       -2.28838        0.21884
H          1.06666       -2.84357        2.21148
H          0.86588       -1.13609        1.95016
H         -1.26787       -1.89390        2.64651
H         -1.42702       -1.58410        0.93938
H         -2.58582       -3.61898        1.44347
H         -1.19745       -4.02206        0.45144
H         -1.25840       -5.70970        2.09214
H          0.03468       -4.69055        2.65985
H         -1.82708       -3.73833        5.61370
H          0.63678       -3.65115        4.91990
