19

O          1.06457       -0.07579        0.00929
P          2.61292       -0.07579        0.00929
O          2.67705       -1.28912       -1.10061
O          2.71085        1.10851       -1.11539
O          4.34292       -0.07579        0.00929
C          5.02068       -1.30887        0.23680
C          4.62148       -2.00595        1.54404
O          3.19348       -2.11668        1.63807
C          5.23117       -3.41324        1.61852
O          6.64553       -3.38732        1.53593
H          2.31630       -2.07872       -0.65271
H          2.27438        0.74794       -1.90930
H          4.86132       -1.96520       -0.62489
H          6.09254       -1.08265        0.25441
H          4.96339       -1.38958        2.38337
H          2.99787       -2.42802        2.54450
H          4.95270       -3.88639        2.56657
H          4.82824       -4.05678        0.82645
H          6.89743       -3.59278        0.61626
