26

O          1.07345        0.00789       -0.07880
C          2.29694       -0.03544       -0.00228
N          2.97776        1.17177        0.00345
C          4.25570        1.15668        0.03895
O          4.94470        2.31150        0.03309
C          5.08706       -0.02796        0.09425
F          6.42153        0.10578        0.15209
C          4.43845       -1.18699        0.11068
N          3.04416       -1.25553        0.03716
C          2.37351       -2.49037        0.03153
O          3.13008       -3.60416       -0.15705
N          1.09815       -2.60796        0.18726
C          0.47434       -3.86049        0.09709
C         -0.45788       -4.07981       -0.92241
C         -1.12208       -5.30421       -1.03189
C         -0.86349       -6.31871       -0.11202
C          0.04585       -6.10297        0.92258
C          0.70169       -4.87432        1.03205
H          5.90745        2.18549        0.06543
H          5.01597       -2.09625        0.20958
H          3.95726       -3.44902       -0.62306
H         -0.67226       -3.28289       -1.63004
H         -1.84451       -5.46007       -1.82853
H         -1.37840       -7.27220       -0.19437
H          0.24139       -6.88662        1.64882
H          1.39858       -4.70515        1.84676
