23

C          1.11607        0.53373       -0.48878
C          0.18812        0.16712       -1.63310
C         -0.17429       -1.12853       -1.70227
C         -1.17476       -1.79539       -2.53017
O         -2.26062       -2.19011       -2.15621
O         -0.65717       -2.14113       -3.71887
S         -0.56214        1.51781       -2.45891
C         -0.07418        1.39179       -4.12561
C         -0.90117        0.51305       -5.03254
C          0.71169        2.27545       -4.77663
C          1.43968        3.48277       -4.37702
O          1.69947        4.38791       -5.15450
O          1.87697        3.50951       -3.11722
H          1.11719       -0.23767        0.29463
H          0.80007        1.45681        0.00937
H          2.14489        0.65104       -0.83947
H          0.26074       -1.84002       -1.00387
H         -1.37550       -2.65782       -4.13932
H         -1.46541        1.13657       -5.73846
H         -0.26598       -0.16721       -5.60952
H         -1.65432       -0.06324       -4.49514
H          0.77323        2.17855       -5.86200
H          2.34324        4.37078       -3.07165
