24

C         -0.17531       -1.20307       -0.23596
O          0.03023       -0.62080        1.05160
C          0.59802       -1.51172        1.91448
C         -0.23223       -2.07510        2.88926
C          0.27731       -3.00522        3.80264
C          1.63271       -3.35830        3.74500
N          2.16765       -4.35832        4.67833
O          1.39000       -4.83977        5.51412
O          3.36356       -4.66350        4.57197
C          2.47986       -2.77083        2.79827
C          1.95547       -1.83153        1.90404
O          2.89991       -1.34027        0.95015
C          3.17606       -0.12847        0.30898
C          2.37103        1.06224        0.71637
O          4.04552       -0.06570       -0.55746
H         -0.63452       -0.43941       -0.87109
H         -0.85762       -2.05689       -0.17685
H          0.76988       -1.49974       -0.70051
H         -1.28489       -1.80253        2.92970
H         -0.39098       -3.44684        4.54025
H          3.53384       -3.03429        2.74012
H          3.02567        1.93928        0.72380
H          1.57411        1.22421       -0.01406
H          1.96426        0.96487        1.72247
