79

C          1.09407        0.24316       -0.02264
C          0.40376        1.28811       -0.91544
C          0.87935        1.14920       -2.36049
C         -1.10925        1.20843       -0.82092
C         -1.88693        2.34490       -0.63688
C         -3.28565        2.27053       -0.39526
C         -4.01183        3.59774       -0.13252
C         -3.47350        4.27184        1.13820
C         -3.90354        4.56699       -1.32114
C         -3.95321        1.00041       -0.32856
N         -5.32097        1.02976        0.10372
C         -6.04037        0.13589       -0.16337
N         -6.67015       -0.80479       -0.47814
C         -8.03938       -0.86616       -0.14675
C         -8.50241       -1.97836        0.61561
C         -7.55933       -3.00392        1.23999
C         -7.64164       -2.96345        2.77165
C         -7.79929       -4.43094        0.73064
C         -9.88240       -2.15432        0.83175
C        -10.82497       -1.25493        0.33919
C        -12.29768       -1.40571        0.67536
C        -12.90285       -2.68112        0.08208
C        -12.50760       -1.36618        2.19390
C        -10.37049       -0.18635       -0.43920
C         -8.99713        0.01194       -0.71756
C         -8.59464        1.17550       -1.62073
C         -9.30860        1.15525       -2.97577
C         -8.80997        2.50576       -0.89537
C         -3.15226       -0.15677       -0.58759
C         -3.57236       -1.62177       -0.52439
C         -3.99652       -2.04163        0.88366
C         -4.42494       -2.06686       -1.71762
C         -1.76829       -0.01198       -0.85976
H          0.94698       -0.77844       -0.39180
H          0.71071        0.28428        1.00342
H          2.17419        0.41841        0.01419
H          0.72143        2.27141       -0.54470
H          0.57343        0.19242       -2.79827
H          0.46862        1.94926       -2.98531
H          1.97201        1.20815       -2.41398
H         -1.39110        3.31445       -0.63581
H         -5.08037        3.41773        0.02322
H         -2.42877        4.58587        1.02801
H         -4.05592        5.16780        1.37828
H         -3.52664        3.59245        1.99537
H         -4.30864        4.11788       -2.23398
H         -4.46667        5.48593       -1.12040
H         -2.86878        4.86370       -1.52708
H         -6.53537       -2.75846        0.96977
H         -8.62349       -3.28311        3.13934
H         -6.89377       -3.62755        3.21800
H         -7.46009       -1.95046        3.14709
H         -7.70361       -4.47950       -0.35923
H         -7.06231       -5.11896        1.16146
H         -8.79170       -4.80921        0.99811
H        -10.22485       -3.00805        1.41384
H        -12.84400       -0.55471        0.24890
H        -12.43189       -3.58614        0.48162
H        -13.97337       -2.73884        0.30944
H        -12.79046       -2.70019       -1.00734
H        -12.05491       -0.46726        2.62747
H        -13.57444       -1.35972        2.43835
H        -12.06080       -2.23430        2.69225
H        -11.10230        0.51085       -0.84311
H         -7.53308        1.11131       -1.87201
H        -10.39030        1.29013       -2.88339
H         -8.92924        1.96002       -3.61539
H         -9.12865        0.20607       -3.49318
H         -8.29546        2.51314        0.07254
H         -8.41741        3.33751       -1.48906
H         -9.87179        2.69894       -0.70787
H         -2.66941       -2.23565       -0.65980
H         -4.77922       -1.42670        1.32711
H         -4.31695       -3.08699        0.89854
H         -3.14116       -1.95468        1.56546
H         -3.76997       -2.38736       -2.53746
H         -5.06731       -2.91581       -1.46508
H         -5.02782       -1.26817       -2.15744
H         -1.17446       -0.90471       -1.05081
