35

C          0.89417        0.03445       -0.07451
C          0.28555        1.34320        0.26243
N         -0.92944        1.70583       -0.09624
N         -1.10646        3.01578        0.24843
C          0.00314        3.43956        0.81397
N          0.91514        2.40886        0.88866
C          2.16970        2.46593        1.54921
C          2.64351        1.32546        2.22104
C          3.84053        1.36991        2.94047
C          4.56666        2.55272        3.00415
Cl         6.03190        2.60975        3.90152
C          4.11244        3.69197        2.34642
C          2.91792        3.65879        1.60281
C          2.56106        4.90208        0.84482
C          3.65780        5.61613        0.12582
C          4.52822        4.91752       -0.71846
C          5.55791        5.60117       -1.36637
C          5.71622        6.97424       -1.17178
C          4.83827        7.67178       -0.34093
C          3.80140        6.99591        0.30250
N          1.38383        5.41907        0.76217
C          0.25041        4.77196        1.40794
H          0.40341       -0.39039       -0.95672
H          0.76378       -0.67617        0.74663
H          1.95832        0.12646       -0.31015
H          2.07376        0.40092        2.25973
H          4.18699        0.48362        3.46782
H          4.69722        4.60749        2.41579
H          4.40395        3.85264       -0.89294
H          6.23342        5.06671       -2.02990
H          6.51921        7.50489       -1.67816
H          4.95779        8.74311       -0.19971
H          3.11181        7.54199        0.94169
H          0.39616        4.70647        2.49278
H         -0.63334        5.40203        1.25631
