32

O          1.45009       -0.21385        0.27030
C          2.67755       -0.10824        0.16981
C          3.50537       -0.52070        1.31303
C          4.55741       -1.35303        1.24743
C          5.23698       -1.81944        2.46449
C          6.47524       -1.29220        2.85025
C          7.11036       -1.73117        4.01460
C          6.52193       -2.72026        4.79601
C          5.29524       -3.26270        4.41724
C          4.65154       -2.81018        3.26089
O          3.23154        0.37088       -0.96121
C          4.55897        0.92265       -1.09210
C          4.84872        2.03852       -0.12345
C          5.78866        1.84316        0.89369
C          5.98309        2.79573        1.88977
C          5.28616        3.99719        1.83506
C          4.40406        4.24172        0.78230
C          4.17501        3.26226       -0.18807
H          3.10706       -0.19976        2.27154
H          4.92549       -1.75127        0.30827
H          6.97354       -0.53463        2.25882
H          8.06597       -1.30219        4.30626
H          7.02044       -3.06977        5.69647
H          4.83827       -4.04082        5.02314
H          3.69348       -3.24479        2.98443
H          5.29655        0.11552       -1.04842
H          4.62552        1.32786       -2.10949
H          6.35824        0.92319        0.92121
H          6.67024        2.59454        2.70722
H          5.43348        4.74412        2.61027
H          3.88035        5.19257        0.72784
H          3.46298        3.45759       -0.98723
