37

C          0.90214       -0.24975       -0.00437
C          0.43660        1.21410       -0.22630
C          1.04328        1.64367       -1.58198
C         -1.10334        1.17003       -0.33204
C          0.85568        2.17729        0.91297
C          1.49462        1.68595        2.06366
C          1.85310        2.52875        3.11044
C          1.57812        3.89034        3.03678
C          0.94613        4.46429        1.91467
C          0.65721        5.98544        1.95451
C         -0.34339        6.27277        3.09922
C          1.97126        6.75972        2.22896
C          0.05440        6.61693        0.68038
C          0.60067        3.57472        0.87121
O         -0.01273        4.06122       -0.24745
H          0.59987       -0.89304       -0.83995
H          0.46260       -0.68462        0.90077
H          1.99377       -0.31677        0.07406
H          0.87558        0.87868       -2.34985
H          0.60312        2.56294       -1.97642
H          2.12510        1.79914       -1.49854
H         -1.55371        0.86112        0.61895
H         -1.53632        2.13895       -0.59793
H         -1.42568        0.45639       -1.09948
H          1.72400        0.63176        2.18588
H          2.33764        2.12054        3.99390
H          1.85763        4.50155        3.89202
H          0.04858        5.98141        4.07969
H         -0.58355        7.34103        3.15714
H         -1.28247        5.72795        2.94508
H          2.72816        6.52845        1.47006
H          1.80403        7.84336        2.21352
H          2.40265        6.52682        3.20798
H          0.72215        6.50817       -0.18088
H         -0.92338        6.18955        0.43391
H         -0.10596        7.69439        0.81388
H          0.69969        4.47260       -0.76638
