26

N          0.63564       -0.03944        1.03376
N          0.58066        1.27188        1.51555
C          0.09076        2.38074        0.86363
O          0.05897        3.45814        1.45403
C         -0.39157        2.26581       -0.57104
C          0.71627        2.47828       -1.60453
C          1.48465        1.23048       -2.05338
C          0.65142        0.08230       -2.62602
C          0.44019        0.18608       -4.12439
O          1.23078       -0.32872       -4.91626
N         -0.66179        0.85582       -4.60342
N         -1.58536        1.55291       -3.81226
H         -0.07588       -0.20967        0.32487
H          1.54760       -0.19726        0.59927
H          0.83912        1.44441        2.48740
H         -0.96210        1.34787       -0.71666
H         -1.12828        3.07169       -0.69599
H          0.28283        2.95310       -2.49147
H          1.44417        3.19985       -1.21120
H          2.22897        1.54228       -2.79771
H          2.06153        0.85676       -1.20187
H          1.20520       -0.85347       -2.46929
H         -0.30002       -0.06834       -2.11325
H         -0.69240        0.93123       -5.62027
H         -2.36491        1.85280       -4.40538
H         -2.00459        0.91381       -3.13373
