18

O          0.93432        0.07178        0.02311
P          2.48267        0.07178        0.02311
O          2.49939        0.26253        1.65285
O          2.50264       -1.56432       -0.00753
O          4.21267        0.07178        0.02311
C          5.02118       -0.28054        1.08115
C          6.13933        0.52475        1.30413
C          6.97730        0.27559        2.39491
C          6.70851       -0.78678        3.25670
C          5.61608       -1.61548        3.01358
C          4.78476       -1.37028        1.91875
H          2.24948        1.16772        1.90453
H          1.69555       -1.83196        0.47251
H          6.35108        1.35900        0.64270
H          7.83655        0.91541        2.57770
H          7.34900       -0.97303        4.11462
H          5.40089       -2.44812        3.67792
H          3.94042       -2.03084        1.75763
