36

C          0.99844        0.02840       -0.14535
C          0.52670       -0.99959        0.86287
C          0.81017       -0.55258        2.27146
O         -0.06655       -0.22483        3.05917
O          2.14821       -0.57537        2.52215
C          2.63109       -0.17593        3.82636
C          2.37080        1.31180        4.10497
C          2.71202        1.70377        5.54075
C          2.01982        0.79251        6.57478
C          0.46311        0.91369        6.56133
C         -0.20363       -0.01980        7.57870
C         -0.00858        2.34813        6.82868
C          2.52645       -0.64245        6.32588
C          2.17568       -1.14424        4.92764
H          0.58456        1.01757        0.07754
H          0.68631       -0.25669       -1.15448
H          2.08975        0.11506       -0.13728
H         -0.55584       -1.14298        0.76676
H          0.99452       -1.97478        0.69366
H          3.72208       -0.28507        3.75831
H          2.96815        1.91336        3.40791
H          1.33449        1.58698        3.88902
H          2.46360        2.75634        5.70967
H          3.79976        1.63400        5.67660
H          2.36971        1.09724        7.57056
H          0.07963        0.63228        5.57532
H          0.16729        0.16653        8.59157
H         -1.28981        0.12528        7.58341
H         -0.03017       -1.07160        7.33362
H          0.31128        3.03164        6.03701
H         -1.10286        2.39623        6.86104
H          0.37472        2.72037        7.78415
H          2.14043       -1.33599        7.07971
H          3.61838       -0.65998        6.44364
H          1.10148       -1.34191        4.87147
H          2.64688       -2.12090        4.75843
