58

O          1.61261       -1.41414       -0.51018
C          2.64759       -1.05086        0.03016
S          2.87530        0.62066        0.48258
C          4.57694        0.84835        0.04222
C          5.06803        2.16301       -0.00108
C          6.41071        2.41109       -0.27721
C          7.27006        1.34700       -0.51473
C          6.78174        0.03943       -0.48521
C          5.42804       -0.23610       -0.21160
C          4.98294       -1.64197       -0.04557
O          5.99574       -2.55891       -0.25531
C          3.74209       -2.01518        0.34234
C          3.37957       -3.37141        1.01744
C          1.92877       -3.50701        1.52558
C          1.64963       -2.49717        2.66242
C          0.16788       -2.25466        2.85704
C         -0.78267       -3.28012        2.80597
C         -2.13734       -2.97590        2.61408
C         -2.56849       -1.64599        2.48982
C         -3.94304       -1.30542        2.09353
C         -4.17083       -0.47179        0.98037
C         -5.46313       -0.09712        0.60703
C         -6.54796       -0.56150        1.34267
Br        -8.29830       -0.03286        0.86468
C         -6.35135       -1.40688        2.43309
C         -5.05461       -1.77919        2.80334
C         -1.62575       -0.62786        2.68341
C         -0.27896       -0.92587        2.87245
C          2.47737       -2.84891        3.89348
C          3.93248       -3.07186        3.51394
C          4.93935       -2.84246        4.46101
C          6.25808       -3.21063        4.19520
C          6.55893       -3.91944        3.03793
C          5.56854       -4.14437        2.08585
C          4.28809       -3.59575        2.24941
H          4.40833        3.00495        0.19946
H          6.78637        3.43061       -0.29076
H          8.32547        1.52527       -0.70338
H          7.48946       -0.77361       -0.63736
H          5.58721       -3.41225       -0.47237
H          3.54586       -4.17648        0.28974
H          1.22046       -3.39368        0.69799
H          1.76958       -4.52990        1.89910
H          2.04597       -1.52821        2.35264
H         -0.47747       -4.32368        2.81361
H         -2.84345       -3.79290        2.47975
H         -3.32949       -0.10847        0.39069
H         -5.60500        0.55568       -0.25002
H         -7.19666       -1.77396        3.00817
H         -4.91484       -2.42668        3.66607
H         -1.92543        0.41645        2.62323
H          0.42929       -0.10189        2.93240
H          2.39738       -2.04941        4.64007
H          2.10266       -3.76855        4.36148
H          4.70721       -2.35364        5.40415
H          7.04668       -2.97084        4.90293
H          7.57564       -4.25380        2.84881
H          5.83857       -4.67656        1.17900
