13

C          0.96666        0.02097       -0.11051
C          0.28579       -1.09332        0.20750
C         -1.21447       -1.12630        0.22817
C          0.98710       -2.37450        0.56956
O          1.78969       -2.81073       -0.51779
H          0.46339        0.94768       -0.36779
H          2.05375        0.02830       -0.11910
H         -1.58670       -1.86601       -0.48809
H         -1.57492       -1.39458        1.22651
H         -1.65146       -0.15734       -0.03529
H          1.62698       -2.23452        1.44673
H          0.27220       -3.17035        0.80172
H          1.29369       -2.61821       -1.33123
