13

F          1.06503        0.03279        0.22738
C          2.39566        0.00419        0.04210
C          3.09357       -1.11399       -0.07820
O          2.53747       -2.36396       -0.03535
C          3.47263       -3.42268       -0.15678
F          4.15284       -3.33743       -1.31901
F          4.33597       -3.41831        0.87994
F          2.80182       -4.59487       -0.14559
O          4.44425       -0.87125       -0.25828
C          4.42718        0.56455       -0.29349
F          5.30844        1.02811        0.62360
F          4.85149        0.96566       -1.51579
O          3.14991        1.15426       -0.04050
