60

O          1.20283       -0.60648       -0.18446
C          1.76018        0.42945        0.14720
O          2.56774        1.15362       -0.68059
C          3.67646        0.55952       -1.54580
C          4.38130       -0.48795       -0.69041
C          5.26493       -2.10878       -1.19178
C          6.43009       -2.68033       -0.44461
O          7.21728       -1.90941        0.98999
C          6.74859       -0.18685        1.59725
O          6.58720       -0.34045        2.99991
C          5.24144       -0.63144        3.26988
O          4.52575       -0.79495        2.06244
C          5.29201       -1.56759        1.03089
C          6.59950       -0.61216       -0.38094
O          8.06280       -0.95526       -0.72861
C          5.21890       -3.10422        1.87360
O          5.65363       -4.31589        1.26579
C          5.56155       -3.10517        3.36896
O          6.97289       -3.22454        3.56990
C          4.99395       -1.89058        4.09379
O          5.48882       -1.79933        5.42785
C          5.22942        0.66805        0.61426
C          5.48297        1.96494       -0.29397
C          6.22983        3.11570        0.33621
O          5.28171        4.03950        0.90326
O          4.34095        2.71420       -0.85771
C          4.72180        1.66401       -1.65741
C          1.85382        0.87786        1.59772
C          1.50713       -0.04304        2.60866
C          1.86977        0.17503        3.95092
C          2.59777        1.30987        4.28529
O          3.15692        1.45937        5.52152
C          2.87315        2.27528        3.32340
C          2.47245        2.07537        1.98936
H          3.25323        0.21661       -2.49270
H          3.48642       -0.92929       -0.25181
H          4.83381       -2.63098       -2.04271
H          7.03676       -3.57451       -0.57583
H          7.69178        0.36904        1.45571
H          4.86208        0.22854        3.81623
H          4.40890       -1.98230        0.55193
H          6.26988       -0.42695       -1.43053
H          6.92288        0.43244       -0.24668
H          8.41103       -1.46286        0.03046
H          4.12131       -3.25442        1.91267
H          6.48499       -4.56480        1.70794
H          5.13357       -4.00858        3.82335
H          7.39225       -2.47757        3.09988
H          3.90600       -2.02221        4.16801
H          6.29654       -2.35050        5.45529
H          4.53627        1.07366        1.34003
H          6.86641        2.79194        1.15890
H          6.81855        3.66945       -0.39865
H          4.56972        4.11550        0.23129
H          5.23804        1.76835       -2.59886
H          1.02171       -0.98154        2.34777
H          1.64014       -0.57519        4.70346
H          3.26852        0.58438        5.93661
H          3.48425        3.13803        3.58582
H          2.77576        2.80977        1.24959
