15

C         -1.66514       -1.57008       -0.01408
N         -0.47729       -0.73247       -0.00817
C          0.76477       -1.34495       -0.01025
C          1.89380       -0.62577       -0.00851
C          1.82884        0.81302       -0.00531
C          0.64530        1.43915       -0.00330
C         -0.62176        0.65530       -0.00484
O         -1.69338        1.25502       -0.00370
H         -1.66243       -2.18501       -0.91974
H         -1.65027       -2.21765        0.86841
H         -2.58287       -0.97614        0.00305
H          0.78331       -2.43078       -0.01326
H          2.86711       -1.10483       -0.00993
H          2.75740        1.37370       -0.00497
H          0.54869        2.51662       -0.00120
