67

O          1.00499        0.29050        1.21114
C          0.12457        1.40409        1.08897
C          0.83165        2.66741        0.65652
C          2.23483        2.80329        0.70604
C          2.88072        3.99469        0.31354
C          4.38744        4.17460        0.43950
O          4.84057        3.51386        1.63300
C          5.28673        3.70602       -0.75019
N          5.17585        4.51921       -1.97330
C          6.30883        4.41149       -2.89952
C          6.30762        3.32173       -4.00028
C          5.09496        3.35132       -4.93910
C          5.34103        3.06513       -6.42616
C          6.04559        1.75714       -6.81073
C          5.46765        0.46515       -6.23314
O          4.17996        0.18887       -6.76524
C          3.14064        0.07437       -5.79812
C          3.12396       -1.25449       -5.03583
C          4.02275       -1.42360       -3.79463
C          4.04384       -0.31970       -2.72020
C          2.76663        0.46026       -2.55255
C          2.81310        1.85022       -2.67137
C          1.66173        2.61446       -2.80383
C          0.42540        1.99147       -2.71785
C          0.35791        0.62112       -2.46889
C          1.52296       -0.14483       -2.38053
C          2.08532        5.06124       -0.13182
C          0.69233        4.94730       -0.18204
C          0.07838        3.75934        0.21067
O         -1.28240        3.63525        0.14023
H          1.43350        0.20070        0.34179
H         -0.64433        1.12295        0.36069
H         -0.36048        1.56219        2.05734
H          2.83588        1.96843        1.06550
H          4.58775        5.23903        0.61658
H          4.15107        3.64625        2.30769
H          6.32104        3.75600       -0.38378
H          5.10600        2.64728       -0.96340
H          4.28369        4.37342       -2.43746
H          6.37097        5.37800       -3.41488
H          7.24754        4.33303       -2.33621
H          7.22114        3.46272       -4.59182
H          6.39051        2.33275       -3.53429
H          4.38239        2.60710       -4.60240
H          4.58612        4.31897       -4.86415
H          4.36570        3.09021       -6.93058
H          5.91755        3.89803       -6.84735
H          6.01352        1.68844       -7.90686
H          7.10159        1.82461       -6.52885
H          6.10973       -0.36721       -6.54236
H          5.47772        0.49756       -5.14398
H          3.13420        0.95028       -5.15607
H          2.20630        0.12543       -6.37051
H          2.09075       -1.43675       -4.71567
H          3.36518       -2.06672       -5.73225
H          3.71052       -2.35416       -3.30105
H          5.05462       -1.60934       -4.11840
H          4.33010       -0.75043       -1.75243
H          4.85933        0.37096       -2.97277
H          3.77530        2.33775       -2.71793
H          1.73378        3.68696       -2.95900
H         -0.48116        2.58210       -2.80393
H         -0.61271        0.14574       -2.35798
H          1.44957       -1.21796       -2.22929
H          2.54826        5.99995       -0.43027
H          0.10490        5.79288       -0.52668
H         -1.65226        4.44043       -0.25774
