27

C          0.97915        0.12116       -0.11350
C          0.59502       -0.46341       -1.46444
C          1.01711       -1.92464       -1.64063
C          0.44115       -2.90630       -0.61014
C         -1.10002       -2.96414       -0.52789
C         -1.70401       -3.42816       -1.86266
C         -1.57914       -3.88419        0.62365
C         -1.12840       -3.42603        2.00755
O         -3.00798       -3.93316        0.63914
H          0.44243       -0.36883        0.70429
H          0.73006        1.18660       -0.08009
H          2.05392        0.01886        0.06697
H         -0.48437       -0.35613       -1.61615
H          1.07641        0.13144       -2.25008
H          0.75205       -2.25004       -2.65293
H          2.11209       -1.98116       -1.58846
H          0.82310       -3.90885       -0.84375
H          0.86183       -2.64776        0.36655
H         -1.49325       -1.95912       -0.33119
H         -1.34620       -4.42851       -2.12925
H         -2.79734       -3.46230       -1.81662
H         -1.44673       -2.74542       -2.67769
H         -1.22801       -4.90845        0.45405
H         -1.40539       -2.38035        2.18192
H         -1.62553       -4.01595        2.78564
H         -0.04914       -3.53026        2.14453
H         -3.33448       -3.02654        0.77405
