23

C          2.50873       -0.00718       -0.14644
C          1.05959       -0.01364        0.36439
C          0.34860       -1.25533       -0.20750
C         -1.12898       -1.32153        0.16153
C         -1.87672       -0.05497       -0.25023
C         -1.22215        1.22926        0.27234
N         -1.60242        1.46523        1.71437
O         -1.03259        0.71154        2.50903
C          0.29082        1.27213       -0.02509
N          0.90127        2.55948        0.47519
O          1.50552        2.43818        1.54595
H          3.01104       -0.94672        0.10904
H          2.54508        0.10773       -1.23523
H          3.09384        0.80280        0.29848
H          1.09805       -0.11386        1.45606
H          0.43948       -1.26039       -1.30177
H          0.84670       -2.16454        0.15100
H         -1.23292       -1.49288        1.23858
H         -1.58665       -2.18646       -0.33305
H         -2.92119       -0.12493        0.07807
H         -1.89854       -0.01111       -1.34720
H         -1.69759        2.07852       -0.23803
H          0.38995        1.37300       -1.11634
