20

N          0.86764        0.03455       -0.13861
C          0.45191       -1.30287       -0.57416
C          0.96701       -2.43005        0.34502
N          0.60354       -2.19569        1.74579
C          1.07799       -3.26493        2.63611
C          2.60297       -3.27411        2.88020
N          3.14565       -1.93321        3.12728
H          0.41159        0.22862        0.75365
H          1.86819        0.03886        0.04327
H         -0.64283       -1.32978       -0.61730
H          0.81898       -1.47371       -1.59187
H          0.53964       -3.37888        0.00031
H          2.05584       -2.49522        0.23729
H          1.01342       -1.32250        2.07658
H          0.58194       -3.11421        3.60285
H          0.74903       -4.24645        2.27472
H          2.82187       -3.91448        3.74132
H          3.11752       -3.70634        2.01475
H          4.13423       -2.01652        3.36531
H          3.11547       -1.40072        2.26063
