16

O          1.09810       -0.01244       -0.13202
C          2.30123        0.05627        0.04401
O          3.13670        0.75897       -0.74957
C          3.00576       -0.68023        1.11804
C          2.58334       -1.98035        1.42145
C          3.22384       -2.70531        2.42859
C          4.27340       -2.11799        3.12976
O          4.92659       -2.78692        4.12120
C          4.68735       -0.81917        2.84809
C          4.04940       -0.09069        1.84286
H          4.08428        0.58282       -0.59862
H          1.75502       -2.42680        0.87389
H          2.88973       -3.71403        2.65187
H          4.51402       -3.65905        4.23745
H          5.49600       -0.37328        3.42174
H          4.35291        0.93652        1.65799
