46

C          0.89654        0.09197       -0.80643
C          0.40410       -1.34987       -0.82479
C          1.06221       -2.28999        0.20508
N          0.47687       -2.25844        1.54796
C          0.60362       -1.07918        2.28155
O          1.31742       -0.12898        1.99148
C         -0.15974       -1.10024        3.47075
N         -0.45688       -0.10733        4.35182
C         -1.15015       -0.68938        5.39049
C         -1.55092        0.08377        6.59530
C         -2.91022       -0.31513        7.15842
C         -2.89123        0.28355        8.55920
C         -1.42891        0.24485        9.00514
C         -0.61934       -0.17028        7.77915
N         -1.31327       -1.98452        5.17926
C         -0.67808       -2.23236        4.00319
N         -0.44134       -3.45599        3.42661
C         -0.72430       -4.69002        4.15984
C          0.36046       -5.06454        5.18484
C          0.37212       -4.19767        6.43861
C          0.16950       -3.49954        2.16156
O          0.44654       -4.57506        1.62235
H          0.37294        0.68239       -0.04943
H          0.69727        0.57459       -1.76885
H          1.97444        0.14828       -0.62319
H         -0.68761       -1.36771       -0.72797
H          0.63857       -1.74533       -1.82151
H          0.96560       -3.30219       -0.20400
H          2.13487       -2.08373        0.28949
H         -0.17278        0.86083        4.27802
H         -1.56031        1.15769        6.36463
H         -3.74162        0.06609        6.55702
H         -3.01754       -1.40555        7.22250
H         -3.54667       -0.26008        9.24602
H         -3.23640        1.32379        8.52505
H         -1.27834       -0.46337        9.82658
H         -1.11617        1.23253        9.36152
H         -0.35689       -1.23361        7.85801
H          0.31898        0.38828        7.69646
H         -1.70549       -4.60592        4.64138
H         -0.80136       -5.51412        3.44069
H          0.18367       -6.09914        5.50266
H          1.35301       -5.03685        4.72039
H         -0.63417       -4.08426        6.85499
H          1.00226       -4.65191        7.21009
H          0.78483       -3.20554        6.23463
