53

C          1.77789       -0.14518       -0.77030
C          0.60507       -0.61400       -1.62324
O          0.86892       -1.96759       -2.01199
C         -0.76109       -0.57474       -0.91326
O         -1.30368        0.74031       -0.78629
C         -1.05746        1.47154        0.33797
C         -1.62494        2.74645        0.34534
C         -1.34981        3.65436        1.37692
C         -0.47822        3.31587        2.42148
C         -0.06732        4.31431        3.53251
C         -0.34024        5.79443        3.14265
C         -0.97449        4.02557        4.75381
C          1.44588        4.17496        3.85381
C          1.91865        3.47392        4.97575
C          3.28639        3.23683        5.15542
C          4.22151        3.70183        4.23246
O          5.50412        3.30459        4.47158
C          6.49090        3.46718        3.45462
C          6.56765        2.28736        2.46718
C          5.36394        2.13583        1.54463
O          7.73221        2.43771        1.64596
C          3.78026        4.47102        3.16283
C          2.41041        4.67817        2.96025
C          0.00961        1.99471        2.44234
C         -0.28595        1.08309        1.42310
H          1.85594       -0.74059        0.14627
H          1.70149        0.91324       -0.51125
H          2.72407       -0.28881       -1.30400
H          0.56219       -0.00300       -2.53202
H          1.73055       -1.97980       -2.46405
H         -1.47156       -1.11977       -1.54911
H         -0.76557       -1.13810        0.02677
H         -2.27850        3.04699       -0.47020
H         -1.82224        4.63142        1.32600
H         -1.41381        6.00898        3.08380
H          0.08359        6.48339        3.88350
H          0.08575        6.05636        2.16705
H         -0.90804        2.98357        5.08753
H         -0.71489        4.66877        5.60304
H         -2.02968        4.20682        4.51367
H          1.23788        3.05137        5.70936
H          3.61949        2.65029        6.00889
H          6.43278        4.43572        2.94605
H          7.45352        3.50886        3.98150
H          6.68429        1.35515        3.03092
H          5.18639        3.05493        0.97560
H          5.54743        1.35004        0.80350
H          4.45674        1.87145        2.09372
H          7.59146        3.20200        1.06091
H          4.46244        4.89339        2.43487
H          2.10917        5.21450        2.06323
H          0.65819        1.65507        3.24665
H          0.14232        0.09101        1.50357
