51

C          0.86387        0.36698        0.03709
C          0.45505        0.33773       -1.42907
C          1.00840       -0.86330       -2.19609
O          0.41138       -2.08647       -1.73614
C          1.09389       -2.77665       -0.78603
O          2.21365       -2.47715       -0.38283
C          0.37437       -4.01809       -0.31861
C         -1.13725       -4.02614       -0.19774
C         -1.93756       -2.88452       -0.16678
C         -3.32610       -2.99687       -0.05273
C         -3.95165       -4.24369        0.07213
O         -5.31744       -4.14657        0.12203
C         -6.11678       -5.29869       -0.09267
C         -5.97746       -6.08319       -1.41417
O         -5.87780       -7.31540       -1.39615
N         -5.99245       -5.37857       -2.61804
C         -6.50513       -4.01527       -2.76847
C         -5.50930       -3.05695       -3.40106
C         -5.65965       -6.11992       -3.83471
C         -4.15795       -6.34185       -3.96156
C         -3.15626       -5.39404        0.14247
O         -3.75999       -6.58127        0.44625
C         -3.06194       -7.78066        0.13468
C         -1.76524       -5.27326       -0.01253
H          0.42592       -0.46676        0.59350
H          0.51584        1.29193        0.50760
H          1.95229        0.32238        0.14346
H         -0.63987        0.33345       -1.48180
H          0.80607        1.25777       -1.90955
H          0.73490       -0.76465       -3.25241
H          2.10316       -0.89871       -2.15747
H          0.67860       -4.81917       -1.00409
H          0.77176       -4.25402        0.67703
H         -1.51462       -1.88713       -0.23853
H         -3.93313       -2.09389       -0.06468
H         -6.01624       -5.98439        0.75656
H         -7.16263       -4.96936       -0.04658
H         -7.40280       -4.08018       -3.39537
H         -6.83604       -3.61071       -1.81047
H         -5.25504       -3.35744       -4.42221
H         -5.93620       -2.05008       -3.44929
H         -4.58167       -3.01143       -2.82479
H         -6.17149       -7.08886       -3.81575
H         -6.03415       -5.57813       -4.70964
H         -3.77174       -6.93992       -3.12983
H         -3.92766       -6.86973       -4.89179
H         -3.61603       -5.39069       -3.96199
H         -2.69161       -7.77674       -0.89592
H         -2.24766       -7.94893        0.84645
H         -3.76536       -8.61272        0.23418
H         -1.13118       -6.15427        0.04208
