25

C          1.71966       -0.11158        0.08594
C          1.41788        0.23840       -1.36271
C          1.29123       -0.97951       -2.28575
C          0.17470       -1.97182       -1.93842
O         -1.09747       -1.48188       -2.38535
C         -1.82230       -0.88132       -1.39397
C         -2.11417        0.47419       -1.56592
C         -2.80370        1.17264       -0.57425
C         -3.24892        0.50239        0.56400
C         -3.01243       -0.86582        0.69671
F         -3.46849       -1.50366        1.78229
C         -2.30484       -1.55942       -0.27859
F         -2.08858       -2.87697       -0.13399
H          0.91246       -0.69010        0.54313
H          1.83983        0.80383        0.67473
H          2.64737       -0.68679        0.16293
H          0.51868        0.85617       -1.40630
H          2.23065        0.87103       -1.74017
H          1.12968       -0.60940       -3.30611
H          2.24882       -1.51295       -2.28202
H          0.35405       -2.89280       -2.50586
H          0.18978       -2.26051       -0.88215
H         -1.76409        0.99038       -2.45622
H         -2.98541        2.23869       -0.69079
H         -3.78390        1.03267        1.34553
