39

C          0.82579       -0.36064       -0.35678
C          0.19193       -1.49339        0.43599
C          0.86207       -1.74515        1.79067
C          0.82424       -0.56539        2.76761
N         -0.53589       -0.21904        3.17798
C         -1.20746       -0.92505        4.14966
O         -2.28709       -1.47161        3.95694
N         -0.59567       -0.99404        5.41603
C         -0.89313       -1.96313        6.38146
N         -1.87876       -2.90635        6.18300
C         -2.24845       -3.89233        7.05531
O         -3.16735       -4.65845        6.77505
O         -1.53973       -3.95207        8.21095
C         -1.95446       -4.97691        9.11099
N         -0.10048       -1.85218        7.42290
C          0.64029       -0.72605        7.22009
C          1.58903       -0.13396        8.06790
C          2.18600        1.06995        7.68209
C          1.83484        1.68010        6.47980
C          0.89562        1.09893        5.61988
C          0.33103       -0.13103        6.00139
H          0.66515        0.60698        0.12738
H          0.38141       -0.30687       -1.35591
H          1.90289       -0.51645       -0.47363
H         -0.87687       -1.29301        0.56819
H          0.26282       -2.41315       -0.15735
H          0.38398       -2.61631        2.25569
H          1.91040       -2.01850        1.61788
H          1.41997       -0.84208        3.64108
H          1.26942        0.33127        2.32762
H         -1.15035       -0.06046        2.38734
H         -2.43570       -2.85130        5.33484
H         -2.99884       -4.83223        9.40509
H         -1.81129       -5.96388        8.66027
H         -1.33217       -4.91297       10.00797
H          1.83329       -0.60189        9.01580
H          2.91556        1.54039        8.33709
H          2.29362        2.62884        6.20753
H          0.61942        1.59939        4.69745
