22

Cl         0.92062       -0.02283       -0.15660
C          2.65001       -0.06082       -0.11159
C          3.31447        1.14507       -0.33304
C          4.70884        1.18931       -0.31963
Cl         5.45357        2.72152       -0.63384
C          5.47491        0.03357       -0.06431
C          6.96171        0.09699       -0.04293
C          7.65409        0.52985        1.11578
Cl         6.75603        0.96738        2.54249
C          9.05653        0.60226        1.12220
Cl         9.95493        1.15364        2.49333
C          9.78518        0.22574       -0.00494
C          9.12439       -0.21427       -1.15076
Cl        10.10575       -0.67700       -2.49758
C          7.72150       -0.26969       -1.18212
Cl         6.90543       -0.78344       -2.63247
C          4.78258       -1.18190        0.16844
Cl         5.70305       -2.62488        0.50965
C          3.37418       -1.23474        0.13408
Cl         2.53593       -2.73589        0.38676
H          2.74417        2.05306       -0.52024
H         10.87262        0.27576        0.00957
