70

C          1.52963       -1.08247       -1.02025
C          0.10873       -1.22562       -1.62521
C         -0.10864       -0.22186       -2.78795
C         -0.40389        1.26279       -2.37950
C         -1.56550        1.36735       -1.35166
O         -2.74137        1.06973       -2.10124
C         -1.79310        2.71855       -0.41738
C         -2.34811        3.84359       -1.27548
C         -0.50173        2.93754        0.27867
C         -0.30030        1.61592        1.22361
O          0.84739        1.97184        1.91306
O          0.04330        0.69156        0.27986
C         -1.24128        0.38904       -0.24015
C         -1.03263       -1.08624       -0.57636
O         -2.23077       -1.71966       -1.00061
C         -2.33848        0.85143        0.78157
O         -3.54022        0.23591        0.25808
C         -2.59871        2.40508        0.94454
O         -3.96582        2.76501        0.86692
C         -1.94737        2.85544        2.63473
O         -2.77114        3.83273        3.36435
C         -3.35935        3.55388        4.56060
O         -4.55318        3.19594        4.59682
C         -2.50691        3.52002        5.73625
C         -1.34370        4.17797        6.11121
C         -0.88468        3.60911        7.33658
C         -1.76206        2.61093        7.68513
N         -2.77364        2.62250        6.76595
C         -1.50105        1.49853        3.37396
O         -2.43426        1.17629        4.44551
C         -0.18153        0.96127        4.22606
C         -0.17459       -0.61674        4.25306
C          1.31635        1.32599        4.14559
C         -1.58664        0.61187        2.11978
C         -3.03133       -0.06921        2.53079
H          1.58033       -1.47376        0.00378
H          1.88515       -0.04584       -1.00251
H          2.26007       -1.64309       -1.61294
H          0.06391       -2.24327       -2.03394
H          0.76979       -0.24320       -3.44560
H         -0.95030       -0.59099       -3.38568
H          0.52734        1.69788       -2.00668
H         -0.66137        1.80850       -3.29483
H         -3.34548        0.54420       -1.53815
H         -1.73944        3.98736       -2.17591
H         -3.36372        3.60570       -1.61851
H         -2.39210        4.79359       -0.73880
H         -0.48938        3.90170        0.80051
H          0.33081        3.03508       -0.42846
H          1.27392        2.75522        1.52704
H         -0.72095       -1.61559        0.33674
H         -1.99916       -2.65125       -1.18153
H         -3.34977       -0.70139        0.01906
H         -4.04757        3.71995        1.03162
H         -1.04421        3.44906        2.52210
H         -0.85381        4.96692        5.56120
H          0.01035        3.86602        7.88964
H         -1.75621        1.89102        8.49557
H         -3.53056        1.94866        6.73221
H         -3.35764        1.39342        4.23885
H         -0.39436        1.25553        5.26147
H         -0.94283       -1.09027        3.64236
H          0.76898       -1.04117        3.88502
H         -0.32296       -0.97677        5.27447
H          1.49539        2.40303        4.12672
H          1.83831        0.93499        5.02977
H          1.84941        0.81926        3.32588
H         -3.45874       -0.88844        1.95034
H         -3.83345        0.70599        2.61818
H         -2.99817       -0.58992        3.49392
