28

C          2.54131        0.94450        0.13562
C          1.16546        0.35626        0.04929
C          0.06700        1.17644       -0.08666
C         -1.15703        0.55168       -0.16266
C         -2.41898        1.35036       -0.27291
N         -1.28137       -0.78959       -0.11816
C         -0.16876       -1.52071        0.03208
N         -0.23669       -2.90542        0.17859
C         -1.29400       -3.80543        0.02612
C         -1.30161       -4.98278        0.78895
C         -2.37287       -5.87918        0.72452
C         -3.45345       -5.61456       -0.11201
C         -3.46527       -4.45055       -0.87474
C         -2.39995       -3.54935       -0.79271
N          1.05984       -0.98835        0.12720
H          2.74437        1.56295       -0.74457
H          2.63272        1.55990        1.03597
H          3.30104        0.15771        0.17927
H          0.15978        2.25513       -0.12571
H         -2.53653        1.99111        0.60684
H         -2.39868        1.97258       -1.17258
H         -3.29268        0.69294       -0.33196
H          0.65545       -3.26912        0.46996
H         -0.47859       -5.19856        1.46514
H         -2.36601       -6.77696        1.33656
H         -4.28785       -6.30829       -0.16413
H         -4.30430       -4.23441       -1.53037
H         -2.43536       -2.64678       -1.39792
