23

O          1.16287       -0.14700       -0.17360
C          2.39211       -0.07470       -0.13699
C          3.09569        0.60346       -1.25795
C          4.34903        0.18651       -1.72081
C          4.95104        0.83969       -2.79952
C          4.30026        1.90130       -3.42744
C          3.04313        2.30907       -2.98437
C          2.43891        1.65831       -1.90706
C          3.12577       -0.65303        1.02556
C          2.45291       -1.51491        1.88696
C          3.13695       -2.02540        2.98670
C          4.46022       -1.65465        3.19625
C          5.04950       -0.78446        2.29354
N          4.41566       -0.27577        1.21450
H          4.86752       -0.64983       -1.26031
H          5.92712        0.51604       -3.15213
H          4.77047        2.40675       -4.26726
H          2.53022        3.13003       -3.47875
H          1.45304        1.97562       -1.57306
H          1.41552       -1.78117        1.70827
H          2.63794       -2.70101        3.67603
H          5.01832       -2.03123        4.04669
H          6.07953       -0.46198        2.42043
