24

C          0.79838        0.05893       -0.16130
O          0.23214        0.33128       -1.44497
C          0.88527        1.29283       -2.14232
O          1.85042        1.93538       -1.76267
C          0.30717        1.41468       -3.50148
C         -1.03255        1.10960       -3.76890
C         -1.53538        1.23666       -5.07091
O         -2.85499        0.93663       -5.27767
C         -0.70678        1.65928       -6.12145
O         -1.04220        1.81969       -7.43976
C         -2.36975        1.54515       -7.85291
C          0.63474        1.96512       -5.82398
O          1.46645        2.37823       -6.83439
C          1.14166        1.85606       -4.53000
H          0.37813       -0.88341        0.20091
H          0.52961        0.85569        0.53799
H          1.88619       -0.05481       -0.21884
H         -1.67867        0.78113       -2.95954
H         -3.27470        0.69391       -4.43641
H         -2.62913        0.49414       -7.69227
H         -3.08306        2.22455       -7.37616
H         -2.42298        1.72773       -8.93107
H          2.35221        2.54999       -6.47862
H          2.17876        2.09916       -4.31464
