14

N         -2.11873        2.14097       -0.01563
C         -1.16067        1.48720       -0.01255
C          0.04036        0.70185       -0.00767
C          1.27795        1.36307       -0.01768
C          2.46839        0.63399       -0.01084
C          2.43219       -0.75842        0.00660
C          1.20547       -1.42463        0.01568
C          0.00391       -0.69997        0.00785
C         -1.23631       -1.42183        0.01483
N         -2.22705       -2.02490        0.01955
H          1.32199        2.45171       -0.03077
H          3.42484        1.15316       -0.01880
H          3.36037       -1.32661        0.01280
H          1.19288       -2.51409        0.02875
