53

O          0.90722       -0.00373       -0.03711
P          2.45557       -0.00373       -0.03711
O          2.60218       -0.61641        1.49103
C          2.29194        0.16384        2.62415
C          3.54130        0.85670        3.14067
Cl         3.82206        2.38248        2.25776
O          2.54336       -1.52976       -0.72221
C          1.41351       -2.21911       -1.27397
C          0.94030       -3.40596       -0.45015
Cl         0.12550       -2.93893        1.05625
O          4.18557       -0.00373       -0.03711
C          4.57623        0.91722       -1.06061
C          4.17249        0.50634       -2.51780
C          2.65865        0.49918       -2.94943
Cl         1.69204        1.91134       -2.46891
C          4.73515        1.60456       -3.51314
Cl         4.50470        3.31872       -3.04016
C          4.66141       -1.05005       -2.67200
O          6.07889       -1.36399       -2.50756
P          6.65556       -0.47993       -3.87825
O          6.59989       -1.77491       -4.68981
O          8.15401       -0.36735       -3.23025
C          8.58719        0.59947       -2.28680
C          8.18524        2.06356       -2.45324
Cl         8.69852        2.77825       -3.99111
O          7.23222        0.40414       -5.24894
C          6.62353        0.13883       -6.51386
C          7.40103       -0.92375       -7.29229
Cl         6.29343       -2.10118       -8.04937
H          1.46791        0.85428        2.42247
H          1.94573       -0.54240        3.38722
H          3.43405        1.11181        4.19806
H          4.43167        0.23353        3.00825
H          0.58238       -1.55783       -1.54056
H          1.76486       -2.61865       -2.23393
H          0.21248       -3.97951       -1.03438
H          1.77532       -4.05986       -0.18923
H          4.16962        1.89398       -0.78417
H          5.66475        0.99733       -0.99273
H          2.57681        0.43694       -4.04357
H          2.11899       -0.37129       -2.62823
H          5.78807        1.57200       -3.64593
H          4.30209        1.50356       -4.51953
H          4.18964       -1.71101       -1.95981
H          4.32914       -1.41814       -3.65239
H          8.26668        0.26199       -1.29644
H          9.68243        0.55714       -2.29010
H          7.11288        2.19202       -2.36076
H          8.63127        2.66942       -1.65919
H          5.57034       -0.11908       -6.35721
H          6.63820        1.07814       -7.07658
H          7.95811       -0.45795       -8.11045
H          8.12060       -1.46926       -6.67431
