21

C          0.89679       -0.57700       -0.09537
O          0.15129        0.12704       -1.07934
C          0.81211        1.27405       -1.60805
C          0.52682        2.57240       -0.83744
C          0.76922        2.57488        0.66764
O          1.13119        3.73054       -1.47916
C          2.42312        4.10124       -1.55400
C          3.50240        3.17901       -1.08102
O          2.72145        5.18906       -2.04490
H          0.60302       -1.62960       -0.13553
H          0.65167       -0.20087        0.90020
H          1.97598       -0.51301       -0.26433
H          1.87824        1.07652       -1.74791
H          0.42727        1.40976       -2.62687
H         -0.55154        2.75096       -0.94434
H          1.74961        2.17820        0.93927
H          0.71254        3.59413        1.06466
H          0.01545        1.97154        1.18269
H          4.10063        2.86921       -1.94266
H          4.13358        3.71572       -0.36674
H          3.14811        2.28296       -0.58468
