121

C          1.06426       -0.23144       -0.43673
C          0.80158       -1.13937        0.75488
C          1.25268       -0.52745        2.08384
C          0.56790        0.79468        2.44400
C         -0.95713        0.70301        2.53161
C         -1.45177       -0.20370        3.66222
C         -1.07350        0.28822        5.06857
C         -1.46950        1.74348        5.36498
C         -2.95475        1.89651        5.24542
C         -3.72505        2.27843        6.26764
C         -5.19700        2.00517        6.29521
C         -5.48154        0.95855        7.38149
C         -5.12865        1.42318        8.80259
C         -5.84014        2.71483        9.21508
C         -7.36576        2.61517        9.12888
C         -7.95571        1.46092        9.94874
C         -7.59224        1.49673       11.43640
C         -8.05608        2.76741       12.14166
C         -9.57923        2.83231       12.30598
C        -10.08198        2.40456       13.68402
C         -9.56636        3.21061       14.87777
C        -10.35987        4.46923       15.17035
O        -11.33279        4.44849       15.91648
N         -9.98509        5.65833       14.62398
C         -9.00012        5.93541       13.60334
C         -9.69258        6.36522       12.30815
C         -9.67905        7.87847       12.12928
C         -8.27339        8.41612       11.84321
C         -7.68229        7.92054       10.51613
C         -8.51607        8.31922        9.29443
C         -8.80152        9.82314        9.23675
C         -7.52292       10.66707        9.27718
C         -6.64346       10.45199        8.04382
C         -7.33128       10.90276        6.75298
C         -7.71663       12.38579        6.77859
C         -6.50247       13.30906        6.92688
C         -5.51801       13.18563        5.75981
C         -6.15156       13.51978        4.40570
C         -6.66208       14.96146        4.31777
C         -5.55473       16.01291        4.44098
C         -4.45889       15.89429        3.37913
C         -4.99728       16.03766        1.96402
H          0.48486        0.69474       -0.37519
H          0.78017       -0.73542       -1.36525
H          2.12537        0.02917       -0.49960
H         -0.26258       -1.39759        0.79108
H          1.33849       -2.08301        0.60539
H          1.08632       -1.25932        2.88308
H          2.33582       -0.35965        2.05171
H          0.97677        1.15448        3.39542
H          0.83326        1.56107        1.70739
H         -1.36434        1.71313        2.65276
H         -1.37313        0.34829        1.58284
H         -2.54153       -0.29746        3.58280
H         -1.07375       -1.22313        3.52869
H         -1.55283       -0.37473        5.80221
H          0.00518        0.17406        5.22298
H         -1.13556        1.98837        6.38134
H         -0.96229        2.44407        4.69603
H         -3.43018        1.54228        4.33474
H         -3.26089        2.65235        7.17626
H         -5.75268        2.93237        6.46065
H         -5.54190        1.60594        5.33323
H         -6.53671        0.66829        7.33040
H         -4.91366        0.04271        7.16869
H         -5.36540        0.61722        9.50606
H         -4.04685        1.56767        8.90229
H         -5.53397        2.98181       10.23294
H         -5.50169        3.54923        8.58967
H         -7.80348        3.56990        9.44049
H         -7.67314        2.49317        8.08378
H         -9.04260        1.46588        9.82074
H         -7.62276        0.50171        9.53655
H         -8.02018        0.62104       11.93722
H         -6.50591        1.40733       11.55533
H         -7.54149        2.82113       13.10442
H         -7.71501        3.64946       11.58839
H         -9.93128        3.84008       12.09582
H        -10.07632        2.20974       11.55485
H        -11.17831        2.43756       13.66888
H         -9.80167        1.35421       13.82817
H         -9.67593        2.58414       15.77289
H         -8.49945        3.43666       14.83045
H        -10.57685        6.42626       14.91856
H         -8.34596        6.71110       14.00809
H         -8.37325        5.06488       13.42694
H         -9.20294        5.88991       11.45181
H        -10.73272        6.01632       12.28677
H        -10.36252        8.14756       11.31585
H        -10.07898        8.35963       13.02901
H         -8.31406        9.51053       11.86022
H         -7.58286        8.14950       12.64875
H         -6.66409        8.31481       10.41720
H         -7.55562        6.83315       10.52477
H         -7.99445        7.99626        8.38599
H         -9.46593        7.77298        9.28901
H         -9.38964       10.04307        8.33982
H         -9.44904       10.11769       10.06979
H         -7.79332       11.72179        9.38822
H         -6.93365       10.44774       10.17308
H         -5.69757       10.98682        8.18174
H         -6.35879        9.39849        7.95093
H         -6.67375       10.68815        5.90417
H         -8.22884       10.30305        6.56873
H         -8.27791       12.62559        5.87013
H         -8.42107       12.58856        7.59209
H         -6.84885       14.34284        7.02762
H         -5.97297       13.10074        7.86323
H         -4.65507       13.83257        5.94913
H         -5.10667       12.17069        5.71842
H         -5.42424       13.32110        3.61210
H         -6.98250       12.83702        4.19639
H         -7.19842       15.09142        3.37183
H         -7.41259       15.14702        5.09471
H         -6.00925       17.00877        4.38183
H         -5.09351       15.95446        5.43413
H         -3.71078       16.67460        3.55748
H         -3.93049       14.93913        3.47526
H         -5.52058       16.99142        1.84475
H         -4.17750       16.00157        1.24129
H         -5.69200       15.23067        1.71145
