43

C         -0.68816        1.23375        1.21086
C          0.61078        1.97129        1.17596
C          1.18934        2.28567        0.01916
C          2.65356        2.12210        0.03826
O          3.34353        2.59671       -0.82803
N          2.99857        1.08674        0.91882
C          4.15102        0.31262        0.52570
C          5.01231       -0.44041        1.51750
O          5.50383       -1.51669        1.14982
N          5.35846        0.13194        2.73130
C          6.25092       -0.66882        3.56350
C          5.02088        1.44742        3.17213
C          6.01940        2.18065        3.84409
C          5.78237        3.46506        4.32896
C          4.53066        4.03585        4.16139
Cl         4.22900        5.61319        4.77607
C          3.51922        3.33518        3.50445
C          3.74119        2.03190        2.99870
C          2.59641        1.25626        2.31616
C          2.18665        0.04586        3.19274
C          2.32845       -1.30184        2.84864
C          1.98363       -2.31495        3.75680
C          1.42775       -2.00850        4.99823
C          1.21520       -0.68382        5.34521
C          1.60321        0.32368        4.46268
O          1.34162        2.01213        2.34763
H         -1.54771        1.89140        1.08232
H         -0.79372        0.66986        2.14314
H         -0.69523        0.48400        0.40601
H          0.71494        2.26914       -0.95079
H          3.71897       -0.45453       -0.13414
H          4.82406        0.90326       -0.10498
H          6.01438       -1.73358        3.45420
H          7.28325       -0.50987        3.23833
H          6.12832       -0.41980        4.62136
H          7.02157        1.77453        3.96550
H          6.58152        4.00783        4.82690
H          2.54529        3.80958        3.39854
H          2.71676       -1.60789        1.88382
H          2.14875       -3.35622        3.48960
H          1.15184       -2.80133        5.68859
H          0.75404       -0.42837        6.29626
H          1.42456        1.35592        4.76774
