43

C          1.56901       -0.54323        0.35685
N          0.71572       -1.17417        1.33408
C         -0.58733       -1.71512        0.91995
C         -1.65321       -0.68921        0.49820
C         -1.43390        0.71942        1.08056
O         -1.19472        1.79304        0.10551
C         -0.56966        1.62774       -1.08374
O         -0.28098        0.54786       -1.58727
C         -0.29274        2.90769       -1.84014
C         -1.29770        3.02849       -2.99229
O         -2.62891        3.29597       -2.55797
C         -0.10148        4.20431       -1.06934
C         -1.06524        4.71848       -0.19150
C         -0.88552        5.96166        0.42028
C          0.25080        6.71951        0.14945
C          1.21742        6.22899       -0.72231
C          1.04554        4.98056       -1.32242
C         -0.40858        0.86046        2.23417
C          0.42890       -0.39143        2.53852
C         -0.32790       -1.45417        3.30247
O         -1.74604       -1.53535        3.17198
C         -0.96415       -2.32120        2.26435
H          1.36779        0.51841        0.20980
H          1.52873       -1.05881       -0.60768
H          2.60868       -0.60509        0.69754
H         -0.48245       -2.50793        0.17200
H         -2.63035       -1.04545        0.85849
H         -1.78083       -0.68379       -0.58471
H         -2.40462        1.01793        1.50073
H          0.68544        2.69897       -2.30227
H         -1.00229        3.84255       -3.66326
H         -1.32190        2.10918       -3.58907
H         -2.94697        2.52614       -2.05596
H         -1.98396        4.17248        0.00947
H         -1.64739        6.34743        1.09263
H          0.37511        7.69742        0.60635
H          2.09766        6.82458       -0.95000
H          1.80852        4.63256       -2.01660
H          0.26514        1.69837        2.01649
H         -0.95264        1.14224        3.14648
H          1.34233       -0.12857        3.08279
H          0.19877       -1.92655        4.11717
H         -0.88976       -3.39351        2.35133
