14

C          1.07241       -0.02453       -0.17221
C          0.57124       -0.97444        0.90444
C          1.01820       -0.58818        2.31786
C          0.55263        0.78004        2.80737
Cl        -1.21944        0.89166        2.89951
H          0.62256        0.96761       -0.07290
H          0.80998       -0.40866       -1.16325
H          2.16088        0.08135       -0.12770
H         -0.52070       -1.04288        0.85066
H          0.95418       -1.97893        0.68653
H          0.66793       -1.35879        3.01617
H          2.11435       -0.61362        2.35883
H          0.93970        0.96507        3.81418
H          0.91023        1.58578        2.16051
