22

C          1.06291        0.01630        0.07313
C          0.54383        0.10177        1.47749
C          0.24458       -1.05994        2.19703
C         -0.21298       -1.00283        3.52751
C         -0.51531       -2.31031        4.21026
C         -0.36347        0.25132        4.15667
C         -0.84938        0.35389        5.57792
C         -0.04465        1.40718        3.42775
O         -0.17850        2.63025        4.02754
C          0.40794        1.33969        2.10857
H          0.71775        0.86881       -0.52131
H          0.70483       -0.89144       -0.42384
H          2.15719        0.00661        0.07859
H          0.36670       -2.03088        1.71849
H         -1.29316       -2.84717        3.65682
H          0.38802       -2.92854        4.24571
H         -0.86945       -2.18979        5.23654
H         -1.84978       -0.08244        5.66604
H         -0.16053       -0.16857        6.24982
H         -0.91920        1.38697        5.93083
H          0.07544        3.31868        3.39248
H          0.65705        2.24562        1.56382
