18

C          0.80970        0.05246       -0.02809
O          0.47587        0.05996        1.35311
C          0.98297       -1.03497        2.13785
C          0.43491       -2.37092        1.62951
C          2.52339       -1.00632        2.27668
C          3.03144        0.34555        2.77181
Cl         3.10170       -2.27826        3.40333
H          0.38339        0.95209       -0.48108
H          0.37836       -0.81394       -0.53570
H          1.89184        0.08131       -0.17666
H          0.55379       -0.87561        3.13542
H          0.93151       -2.67999        0.70390
H          0.57131       -3.16888        2.36542
H         -0.63570       -2.28909        1.41267
H          2.99258       -1.22124        1.31127
H          2.60893        0.59615        3.75103
H          4.12316        0.34383        2.86445
H          2.76621        1.14803        2.07625
