17

C          0.95661        0.16602        0.11854
C          0.49078        0.96336       -1.08955
C          0.91496        0.35087       -2.42841
C          0.39082       -1.06550       -2.69767
C         -1.12969       -1.15547       -2.71940
Cl         1.02273       -1.62284       -4.28285
H          0.46906       -0.81206        0.16608
H          0.71085        0.70319        1.04027
H          2.04014        0.01313        0.09450
H         -0.59715        1.08495       -1.05190
H          0.91535        1.97265       -1.02424
H          0.58011        1.02368       -3.22901
H          2.01213        0.34348       -2.47206
H          0.78817       -1.76578       -1.95676
H         -1.56195       -0.45997       -3.44707
H         -1.45932       -2.16706       -2.98120
H         -1.55347       -0.92393       -1.73739
