27

C          0.38362       -0.93599       -0.23434
N          0.08452       -0.38224       -1.54802
C         -1.32963       -0.04248       -1.65943
C          0.98566        0.70653       -1.95894
C          0.82251        2.12366       -1.36058
C          1.28040        2.40355        0.05404
C          2.26267        1.65131        0.71142
C          2.65125        1.96238        2.01887
C          2.08841        3.05946        2.65982
O          2.43394        3.39311        3.93546
C          1.15578        3.85442        2.01097
C          0.75334        3.52779        0.71451
H         -0.19172       -1.85477       -0.07196
H          0.14441       -0.24615        0.58027
H          1.43819       -1.22336       -0.16237
H         -1.64388        0.69681       -0.91487
H         -1.56082        0.34528       -2.65741
H         -1.94599       -0.93862       -1.52308
H          2.02654        0.37332       -1.86638
H          0.84024        0.81792       -3.04294
H          1.39136        2.80970       -2.00375
H         -0.22620        2.43016       -1.46117
H          2.73638        0.80360        0.22461
H          3.39391        1.34328        2.51147
H          3.03598        2.71330        4.27903
H          0.74042        4.72488        2.51065
H          0.02392        4.16425        0.21762
