8

C          1.04311       -0.06976        0.05723
C         -0.26075       -0.06976        0.05723
C         -1.78075       -0.06976        0.05723
O         -2.25283        0.58670        1.22283
H          2.10885       -0.06442        0.05557
H         -2.15872        0.45854       -0.82236
H         -2.15961       -1.09585        0.04819
H         -1.75905        0.21130        1.97138
