57

C          1.50983       -0.02811       -0.48837
C          0.83416       -1.34141       -0.85511
C          1.01779       -2.43552        0.19947
C          0.30181       -2.18114        1.52616
O         -1.12496       -2.19197        1.35999
C         -1.72842       -0.98637        1.26185
O         -1.22251        0.12034        1.24360
C         -3.17450       -1.21167        1.18203
C         -3.85465       -0.99256       -0.01555
C         -5.23436       -1.20586       -0.06379
C         -5.93677       -1.60288        1.08995
C         -7.38677       -1.82813        0.93680
O         -7.85296       -2.42333       -0.02062
O         -8.06599       -1.18638        1.91376
C         -9.49059       -1.37889        1.91614
C        -10.20423       -0.07025        1.58540
C         -9.95585        0.44264        0.16465
C        -10.58435       -0.43219       -0.90993
C         -5.24586       -1.79032        2.29430
C         -5.91908       -2.22076        3.53529
O         -6.76318       -3.09639        3.60274
O         -5.41889       -1.46910        4.54401
C         -5.93674       -1.68942        5.86341
C         -6.60673       -0.40890        6.35569
C         -7.82904        0.01245        5.53637
C         -8.98562       -0.96704        5.65176
C         -3.85502       -1.60739        2.33326
H          1.19802        0.34222        0.49088
H          1.26142        0.73983       -1.22786
H          2.59787       -0.14345       -0.47207
H         -0.23040       -1.17263       -1.04735
H          1.26292       -1.69325       -1.80120
H          0.63796       -3.37316       -0.22517
H          2.08778       -2.57799        0.39182
H          0.53355       -3.00545        2.21055
H          0.64792       -1.26671        2.01925
H         -3.31804       -0.66980       -0.90505
H         -5.76800       -1.05741       -1.00232
H         -9.81175       -2.19342        1.25856
H         -9.76306       -1.68429        2.93078
H        -11.28155       -0.19566        1.74612
H         -9.85991        0.70155        2.28495
H        -10.38269        1.44932        0.07961
H         -8.88119        0.54242       -0.02218
H        -11.67110       -0.48003       -0.78786
H        -10.37366       -0.01820       -1.90115
H        -10.19389       -1.45255       -0.88793
H         -6.60989       -2.55023        5.91895
H         -5.07706       -1.91096        6.50554
H         -6.89021       -0.52778        7.40762
H         -5.87722        0.40955        6.30704
H         -8.16653        0.99243        5.89394
H         -7.55818        0.14226        4.48263
H         -9.26683       -1.12142        6.69785
H         -9.86002       -0.57929        5.12021
H         -8.73522       -1.93861        5.21715
H         -3.29994       -1.77012        3.25527
