50

O          0.71958       -0.48073       -0.11740
C          0.32169        0.01945       -1.40650
C          1.25364        1.24078       -1.73828
C          2.70487        1.19645       -1.18160
N          3.82935        0.95257       -2.10981
C          3.79088       -0.35312       -2.77939
C          4.20889       -1.35403       -1.72018
C          5.25119       -0.59380       -0.91447
C          5.09141        0.86881       -1.33715
C          0.47895       -1.09611       -2.45653
C          0.79315       -2.41505       -2.09113
C          0.95852       -3.41468       -3.05432
C          0.80474       -3.11399       -4.40609
C          0.46300       -1.82374       -4.79234
C          0.28603       -0.82656       -3.82856
C         -1.22828        0.36011       -1.30358
C         -2.00949       -0.83747       -0.68593
C         -3.49816       -0.57049       -0.49788
C         -3.73382        0.68543        0.32492
C         -3.04805        1.87922       -0.31951
C         -1.54811        1.64431       -0.50300
H          0.55445        0.21868        0.53522
H          1.25621        1.49195       -2.80469
H          0.82916        2.12588       -1.25492
H          2.88617        2.21057       -0.79416
H          2.76839        0.55403       -0.29814
H          4.53239       -0.35271       -3.58986
H          2.84545       -0.57508       -3.25782
H          3.36697       -1.61863       -1.07123
H          4.60270       -2.27984       -2.14884
H          5.07557       -0.72755        0.15838
H          6.25923       -0.95543       -1.14292
H          5.12762        1.55276       -0.48165
H          5.92312        1.14776       -1.99597
H          0.92240       -2.67627       -1.04199
H          1.21266       -4.42413       -2.74664
H          0.94910       -3.88835       -5.15491
H          0.34190       -1.58491       -5.84669
H          0.02183        0.17250       -4.16490
H         -1.62113        0.52658       -2.31631
H         -1.90443       -1.72727       -1.31551
H         -1.58898       -1.09362        0.29471
H         -3.96093       -1.42876        0.00330
H         -3.98092       -0.47249       -1.47716
H         -3.34835        0.54178        1.34207
H         -4.80921        0.87460        0.41306
H         -3.20573        2.77095        0.29765
H         -3.50739        2.08194       -1.29500
H         -1.07041        1.60914        0.48252
H         -1.15443        2.52192       -1.02595
