21

O          0.94562       -1.20622        0.71349
N          2.12123       -0.98398        0.99265
O          2.60330       -0.46060        1.99685
O          3.00283       -1.35059       -0.05310
C          4.37286       -1.05013        0.18852
C          4.90608       -0.06303       -0.85370
O          4.42804        1.27610       -0.73695
C          3.10250        1.56982       -1.17489
C          2.91204        1.66849       -2.69110
O          3.00330        0.38475       -3.29867
N          4.06495        0.24065       -4.22470
O          4.79253        1.21296       -4.42422
O          4.13948       -0.89891       -4.67791
H          4.61097       -0.69777        1.19549
H          4.91079       -1.99671        0.05628
H          5.99193        0.00106       -0.71685
H          4.74633       -0.44891       -1.85752
H          2.38612        0.87250       -0.74761
H          2.86557        2.55309       -0.75182
H          1.88651        2.01060       -2.87589
H          3.57175        2.43627       -3.10362
