35

C          1.24954       -1.09547        0.79444
C          0.56272       -0.26916       -0.28110
C          0.90877       -0.73138       -1.69966
C         -0.18241       -1.49461       -2.47060
C         -1.54622       -0.84047       -2.78187
O         -1.58570        0.21180       -3.76267
P         -1.00903        1.78895       -3.34682
O         -1.17281        1.50218       -1.85721
O          0.47000        1.39419       -3.93456
C          0.60845        1.31830       -5.34439
C          1.02662       -0.08800       -5.73066
O         -0.43236        3.36611       -2.93097
C          0.60669        3.50982       -1.96876
C          0.03888        4.01707       -0.65467
H          0.91110       -2.13343        0.76883
H          1.02704       -0.68290        1.78403
H          2.33854       -1.07829        0.66644
H         -0.51823       -0.27444       -0.10286
H          0.90129        0.76623       -0.15819
H          1.23622        0.13626       -2.27088
H          1.79937       -1.37339       -1.66314
H          0.26060       -1.81822       -3.41691
H         -0.38807       -2.41022       -1.89828
H         -2.16732       -1.63339       -3.21735
H         -2.08086       -0.55339       -1.87204
H         -0.32761        1.58765       -5.84697
H          1.37609        2.03421       -5.64865
H          0.23078       -0.80446       -5.50663
H          1.24925       -0.15391       -6.79894
H          1.90819       -0.40276       -5.16161
H          1.16309        2.57996       -1.82538
H          1.30792        4.25090       -2.36519
H         -0.59096        3.26203       -0.17465
H          0.84251        4.27587        0.04052
H         -0.59160        4.89735       -0.81572
