27

C          0.98964        0.03957       -0.40038
C          0.41755       -1.37163       -0.47075
C          1.01213       -2.39465        0.52528
C          0.78906       -2.03613        1.99464
C         -0.21367       -2.62353        2.78317
C         -0.40457       -2.24098        4.11555
C          0.39070       -1.25059        4.68302
C          1.39349       -0.65653        3.92573
C          1.59824       -1.05612        2.60279
N          2.47950       -2.57199        0.23219
C          2.55488       -3.80074       -0.15764
O          3.70675       -4.36556       -0.50609
N          1.44920       -4.57668       -0.26729
C          0.53311       -3.77054        0.11666
O         -0.74688       -4.11844        0.08978
H          0.67262        0.55398        0.51135
H          0.62391        0.63145       -1.24600
H          2.08278        0.03793       -0.44392
H         -0.66978       -1.31067       -0.33266
H          0.57235       -1.73554       -1.49611
H         -0.87218       -3.39105        2.38663
H         -1.18268       -2.71612        4.70785
H          0.22973       -0.94407        5.71286
H          2.01769        0.11978        4.36024
H          2.39783       -0.58164        2.03600
H          4.40130       -3.70125       -0.38338
H         -0.80204       -5.03257       -0.23803
