43

C          0.71253        0.35182       -0.08429
C          0.32840        0.76702        1.30657
O          0.12589        1.91366        1.66527
O          0.30515       -0.32203        2.11582
C          0.22964       -0.10022        3.53414
C          0.38718       -1.43908        4.27754
C          1.50694       -2.38637        3.84961
C          1.41422       -3.01326        2.47606
O          2.76440       -3.15209        2.03470
C          3.54734       -2.26013        2.83234
C          4.03861       -1.09166        1.98806
C          4.71510       -3.04910        3.40874
O          2.76259       -1.70910        3.89098
O         -0.90009       -2.08374        4.21671
C         -1.88379       -1.05040        4.03034
O         -2.76659       -0.95470        5.13669
C         -2.21090        0.04148        5.99744
C         -1.61794       -0.62739        7.23467
C         -3.31144        1.01533        6.40194
O         -1.17416        0.76554        5.32121
C         -1.17162        0.28312        3.97002
H          0.33021        1.07778       -0.80546
H          0.27810       -0.62320       -0.32481
H          1.80136        0.29732       -0.15832
H          1.00430        0.60963        3.84633
H          0.57621       -1.19984        5.33204
H          1.55993       -3.20487        4.58005
H          0.93704       -3.99784        2.50770
H          0.88309       -2.43132        1.72577
H          4.68788       -0.43013        2.57293
H          4.57417       -1.43044        1.09686
H          3.19344       -0.48181        1.65337
H          4.35057       -3.90155        3.99332
H          5.34718       -3.45437        2.61084
H          5.32715       -2.43372        4.07557
H         -2.44244       -1.28179        3.11830
H         -1.06624        0.09186        7.84896
H         -2.39588       -1.10061        7.84239
H         -0.91769       -1.42132        6.95834
H         -3.75332        1.48877        5.51830
H         -4.12060        0.50132        6.93212
H         -2.91915        1.81578        7.03855
H         -1.69014        1.00686        3.33519
