20

N          1.17967       -0.05098        0.26029
C          0.54295        0.87378        1.06377
N          0.97213        2.13386        1.00633
C          0.33583        3.01970        1.78234
N          0.82764        4.33047        1.70936
C         -0.75181        2.68679        2.59540
C         -1.47524        3.59633        3.40656
C         -2.54364        3.15691        4.18404
C         -2.89862        1.81462        4.15575
C         -2.18593        0.92397        3.34666
C         -1.11627        1.33823        2.56069
N         -0.47932        0.43983        1.80158
H          0.54667       -0.81347        0.06273
H          1.59474        0.42082       -0.53077
H          1.08407        4.67062        2.62960
H          1.63436        4.30381        1.08940
H         -1.20964        4.65083        3.41796
H         -3.09702        3.85860        4.80274
H         -3.73086        1.45480        4.75546
H         -2.47504       -0.12475        3.32775
