45

C          1.19805       -0.19280        0.29970
C          0.89911        1.28767        0.47598
C          1.27090        2.13502       -0.74687
C          0.46359        1.83518       -2.01341
N         -0.93424        2.17231       -1.83564
C         -1.70003        2.96135       -2.63716
O         -2.81154        3.32887       -2.27843
O         -1.11860        3.25948       -3.82519
C         -1.80123        4.22259       -4.65079
C         -2.68289        3.58708       -5.75607
C         -3.74309        2.64933       -5.12161
C         -3.47206        4.67954       -6.55476
C         -2.91061        6.10370       -6.69530
C         -1.75729        6.27253       -7.66522
C         -1.83955        2.67357       -6.68440
O         -0.84319        3.40407       -7.41388
C         -0.62118        3.17036       -8.73134
N         -1.71923        2.88377       -9.47903
O          0.47715        3.30825       -9.25084
H          0.58372       -0.63718       -0.48838
H          0.98506       -0.73186        1.22852
H          2.25185       -0.35223        0.05062
H         -0.15833        1.41812        0.73040
H          1.46991        1.65567        1.33724
H          1.13746        3.19212       -0.48284
H          2.33693        1.99699       -0.96383
H          0.88364        2.41182       -2.84369
H          0.51959        0.77745       -2.28500
H         -1.41085        1.87796       -0.99463
H         -2.39051        4.90715       -4.02785
H         -1.00835        4.82763       -5.10284
H         -4.35749        3.18292       -4.38834
H         -4.42136        2.25138       -5.88601
H         -3.28299        1.79041       -4.62165
H         -3.73242        4.29423       -7.54814
H         -4.43851        4.81833       -6.04811
H         -3.73049        6.73660       -7.06064
H         -2.63789        6.51829       -5.71931
H         -1.98145        5.81196       -8.63152
H         -1.57336        7.33774       -7.84213
H         -0.83087        5.85328       -7.26826
H         -1.29734        1.93305       -6.08359
H         -2.49404        2.09623       -7.34679
H         -1.56537        2.90113      -10.47827
H         -2.63375        3.14987       -9.15228
