33

O          1.21881        2.39571       -0.30619
C          1.01290        1.20197       -0.19291
C         -0.35226        0.69774       -0.07045
C         -1.55456        1.38043       -0.05501
C         -2.72333        0.61890        0.03431
C         -2.66329       -0.78774        0.10289
C         -1.43347       -1.45360        0.08900
C         -0.29341       -0.67684        0.00474
C          1.11237       -1.06199       -0.05451
O          1.46384       -2.22883       -0.02950
N          1.84372        0.10631       -0.15840
S          3.52015        0.02574       -0.39613
C          4.24281        1.68259       -0.16863
C          4.04336        2.56917       -1.40530
C          4.59431        3.97890       -1.20761
C          4.11788        4.60041        0.09939
C          4.51724        3.73797        1.29108
C          3.93796        2.32762        1.18788
H         -1.58572        2.46379       -0.11817
H         -3.69187        1.11615        0.04420
H         -3.58693       -1.36116        0.16244
H         -1.37291       -2.53658        0.13322
H          5.32274        1.47757       -0.14480
H          4.54983        2.11731       -2.26854
H          2.99389        2.64748       -1.69357
H          4.29088        4.61043       -2.05054
H          5.69062        3.94424       -1.21664
H          3.02830        4.72377        0.07788
H          4.55219        5.60053        0.20787
H          4.17442        4.20817        2.21975
H          5.61131        3.68050        1.34964
H          2.86671        2.38359        1.38976
H          4.36382        1.71498        1.99310
