45

C          0.02478        0.29875        0.07269
O         -0.47711        0.16209       -1.25302
N          0.09811        1.16798       -2.03769
C          0.02729        0.89430       -3.30567
C         -0.66512       -0.31879       -3.88403
C          0.68708        1.81446       -4.26939
C         -0.07248        2.30329       -5.34002
C          0.50573        3.18056       -6.25187
C          1.83959        3.56210       -6.09755
C          2.62033        3.07722       -5.03273
O          3.88554        3.62475       -5.00398
C          4.93670        2.89094       -4.48816
N          5.75676        3.57369       -3.68529
C          6.69007        2.85057       -3.06107
O          7.48309        3.58155       -2.21737
C          7.72155        2.95210       -0.96302
C          6.87850        1.50428       -3.27981
C          6.02158        0.91356       -4.18102
O          6.05088       -0.40916       -4.52798
C          6.83113       -1.27480       -3.71440
N          5.04544        1.59187       -4.80616
C          2.03281        2.20424       -4.10024
C          2.75954        1.70370       -2.91829
O          3.24008        2.41253       -2.04880
O          2.81163        0.35097       -3.00185
C          3.36734       -0.32853       -1.87733
H         -0.27071       -0.58254        0.64771
H         -0.39365        1.19271        0.54278
H          1.11860        0.35652        0.06862
H         -1.73773       -0.11981       -3.95649
H         -0.27473       -0.55036       -4.87971
H         -0.50102       -1.19793       -3.25557
H         -1.11891        2.02926       -5.45191
H         -0.08272        3.58048       -7.07479
H          2.27740        4.25878       -6.81138
H          6.84024        2.42237       -0.58258
H          8.57421        2.27030       -1.04385
H          7.98350        3.72976       -0.23919
H          7.66910        0.96702       -2.78313
H          7.90001       -1.08456       -3.85339
H          6.55566       -1.19397       -2.65710
H          6.63088       -2.30358       -4.02891
H          4.23078       -0.90568       -2.21251
H          3.67420        0.33500       -1.06381
H          2.61718       -1.02758       -1.49815
