53

C          1.06954       -0.01372        0.45242
C          0.78830        1.23955       -0.36215
C          1.24970        1.12941       -1.81758
C          0.56797        0.02644       -2.63458
C         -0.95601        0.14656       -2.73862
C         -1.45539        1.43494       -3.40090
C         -0.96729        1.65409       -4.83733
C         -1.30667        0.52799       -5.82144
C         -2.79677        0.23068       -5.95957
N         -3.51691        1.36223       -6.52100
C         -4.49761        1.39221       -7.46358
O         -5.03400        2.47383       -7.71343
C         -4.96197        0.10858       -8.16961
O         -3.86877       -0.58941       -8.76818
C         -5.75627       -0.77080       -7.17319
O         -6.99621       -0.13346       -6.81526
C         -6.05756       -2.19051       -7.72947
O         -4.85065       -2.88393       -8.07906
C         -6.84847       -3.04748       -6.70006
O         -8.10953       -2.46116       -6.36767
C         -7.10926       -4.47382       -7.21219
O         -5.91265       -5.21747       -7.41697
H          0.49959       -0.87108        0.08261
H          0.78672        0.14506        1.49772
H          2.13398       -0.26739        0.42369
H         -0.28001        1.47650       -0.31396
H          1.31154        2.08291        0.10409
H          1.09768        2.09768       -2.30871
H          2.33230        0.95213       -1.83387
H          1.00500        0.01796       -3.64000
H          0.81243       -0.95160       -2.20423
H         -1.33735       -0.72062       -3.29049
H         -1.40056        0.07113       -1.73956
H         -2.55163        1.43502       -3.38272
H         -1.15713        2.29916       -2.79597
H         -1.38509        2.59898       -5.20456
H          0.11952        1.79710       -4.83694
H         -0.90575        0.79791       -6.80647
H         -0.78947       -0.39040       -5.52153
H         -2.92312       -0.65493       -6.58346
H         -3.25304        0.00390       -4.99083
H         -3.37579        2.26739       -6.08522
H         -5.62789        0.41487       -8.98581
H         -3.40976        0.05778       -9.33938
H         -5.18788       -0.89883       -6.24722
H         -6.80974        0.78524       -6.53716
H         -6.66867       -2.08709       -8.63495
H         -4.28454       -2.24535       -8.56813
H         -6.25137       -3.12235       -5.78220
H         -7.97677       -1.48995       -6.32928
H         -7.72694       -5.02244       -6.49287
H         -7.67222       -4.44651       -8.15179
H         -5.27837       -4.60338       -7.84599
