25

C          0.84986       -0.04880        0.07433
C          0.18882       -0.95486        0.81364
C         -1.29218       -1.14603        0.75798
C          0.98215       -1.77917        1.76174
O          2.01020       -1.39560        2.30197
O          0.41448       -3.00169        1.88852
C          1.12432       -3.93527        2.71441
C          1.94305       -4.87558        1.86306
C          1.60983       -6.23409        1.76819
C          2.37889       -7.10030        0.98704
C          3.48391       -6.61815        0.28806
C          3.82542       -5.27101        0.37354
C          3.06324       -4.40639        1.16024
H          0.33356        0.59416       -0.63049
H          1.92815        0.06952        0.15125
H         -1.54484       -2.12036        0.32848
H         -1.72345       -1.08279        1.76268
H         -1.77577       -0.37663        0.14622
H          1.75652       -3.44706        3.46597
H          0.36635       -4.49584        3.27375
H          0.75063       -6.63068        2.30426
H          2.11582       -8.15298        0.92383
H          4.08032       -7.29173       -0.32136
H          4.68708       -4.89066       -0.16878
H          3.35459       -3.35987        1.22365
