39

C          1.04584       -0.08469       -0.08584
C          0.62574        0.23151       -1.50842
O          1.17882       -0.74368       -2.40304
C          2.38004       -0.43224       -2.93236
O          3.03313        0.58121       -2.78653
C          2.82551       -1.57732       -3.79568
N          3.87756       -2.28486       -3.54836
O          3.92405       -3.26872       -4.57228
C          3.04012       -2.85623       -5.66313
C          3.93042       -2.12942       -6.68787
C          3.56721       -0.92304       -7.31261
C          4.40336       -0.32113       -8.25919
C          5.61316       -0.91426       -8.60683
C          5.99001       -2.11273       -8.01104
C          5.15731       -2.71420       -7.06499
C          2.34833       -4.10053       -6.24527
C          1.87485       -4.13131       -7.56966
C          1.21514       -5.25654       -8.07159
C          0.99998       -6.36421       -7.25632
C          1.44574       -6.35045       -5.93838
C          2.11266       -5.23042       -5.43737
C          1.99252       -2.01021       -4.93562
H          0.74288       -1.10112        0.18686
H          0.59364        0.61885        0.61871
H          2.13442       -0.03769        0.01960
H         -0.46372        0.16718       -1.59588
H          0.91271        1.25086       -1.79103
H          2.62846       -0.42378       -7.09640
H          4.10685        0.61426       -8.72782
H          6.26098       -0.44357       -9.34142
H          6.93289       -2.58241       -8.27881
H          5.47386       -3.65447       -6.61438
H          2.02221       -3.28445       -8.23658
H          0.87084       -5.26740       -9.10275
H          0.48634       -7.23808       -7.64816
H          1.27682       -7.21203       -5.29733
H          2.44706       -5.24774       -4.40076
H          1.56497       -1.17585       -5.48983
H          1.16937       -2.60620       -4.52315
