19

C         -1.35415        1.63465       -0.04353
N         -0.24390        0.71132       -0.08581
C          1.11342        1.15340        0.09250
C          1.94474       -0.10231       -0.09532
C          3.13787       -0.09544        0.81423
O          4.30221       -0.04671        0.45293
O          2.83376       -0.12382        2.12361
C          0.99261       -1.26634        0.17462
C         -0.38021       -0.65629        0.06589
O         -1.42623       -1.28265        0.12176
H         -1.38581        2.10193        0.94479
H         -1.20895        2.39997       -0.81028
H         -2.29720        1.11111       -0.22130
H          1.20729        1.60014        1.08818
H          1.35146        1.91304       -0.65919
H          2.30210       -0.16359       -1.13114
H          3.70264       -0.12225        2.58012
H          1.10929       -1.71074        1.16713
H          1.10649       -2.04620       -0.58475
