15

C          0.90873        0.08087       -0.01802
C          0.18796        0.35987       -1.11273
C         -1.30272        0.27477       -1.19677
N         -1.78905        1.58900       -1.57202
C         -2.61472        1.89380       -2.61321
N         -2.94270        3.21086       -2.65931
S         -3.22976        0.86852       -3.76523
H          0.44238       -0.23193        0.91093
H          1.99239        0.14828       -0.03740
H          0.70577        0.64943       -2.02503
H         -1.59192       -0.49449       -1.91551
H         -1.75176        0.03040       -0.22830
H         -1.55888        2.33526       -0.93375
H         -3.52141        3.53273       -3.42599
H         -2.53186        3.90556       -2.05520
