61

C          1.82334        0.12119        1.01305
C          0.41256        0.07952        1.53214
C         -0.21922       -1.15466        1.73246
C         -1.59607       -1.21793        1.98534
C         -2.35868       -0.04338        2.00914
C         -3.84427       -0.16210        1.88820
O         -4.52498       -1.02232        2.42055
O         -4.26390        0.70247        0.92359
C         -5.60015        0.59599        0.37472
C         -5.74659       -0.22699       -0.94215
O         -5.31812        0.23344       -2.26745
C         -5.15562       -0.95387       -3.16073
N         -3.77959       -1.07785       -3.73431
C         -3.11076       -2.30311       -3.73438
C         -1.79673       -2.43609       -3.94717
C         -1.06385       -3.71854       -3.71090
C         -1.04727       -1.21770       -4.30025
O          0.17769       -1.18089       -4.32206
N         -1.82833       -0.14025       -4.62808
C         -3.16968        0.02017       -4.33796
O         -3.72738        1.08780       -4.57544
C         -5.53594       -2.09324       -2.21829
C         -5.04861       -1.53602       -0.88784
O         -3.57466       -1.43603       -0.82562
C         -2.48210       -0.67592       -1.12142
O         -1.43181       -1.33280       -1.15406
C         -2.27720        0.82449       -1.39061
C         -0.94534        1.23424       -1.62614
C         -0.57511        2.58261       -1.80096
C         -1.53195        3.59279       -1.76431
C         -1.15679        5.03688       -1.89807
C         -2.85242        3.22192       -1.56775
C         -3.20110        1.87059       -1.39471
C         -1.71331        1.19656        1.92172
C         -0.33245        1.25511        1.68907
H          2.49306       -0.46466        1.64884
H          1.85381       -0.28671       -0.00498
H          2.20739        1.14572        0.96606
H          0.33566       -2.07970        1.58343
H         -2.08162       -2.19059        2.02280
H         -6.25413        0.15301        1.13621
H         -5.95385        1.61843        0.20908
H         -6.83444       -0.35197       -1.04756
H         -5.85107       -0.83262       -3.99815
H         -3.64850       -3.19614       -3.45515
H         -0.20743       -3.83241       -4.38033
H         -0.70017       -3.75837       -2.67689
H         -1.71665       -4.58630       -3.86258
H         -1.33240        0.70072       -4.87782
H         -5.17989       -3.09458       -2.43820
H         -6.63256       -2.18442       -2.20819
H         -5.37553       -2.16313       -0.05396
H         -0.14578        0.49386       -1.64828
H          0.47384        2.82715       -1.94932
H         -0.60649        5.36621       -1.01106
H         -0.54068        5.19255       -2.78838
H         -2.04398        5.67354       -1.99667
H         -3.64191        3.97205       -1.54287
H         -4.25134        1.73268       -1.25767
H         -2.28627        2.11993        1.93031
H          0.13659        2.22422        1.52988
