20

C          0.86022       -0.23655       -0.02850
C          0.46788        0.72027       -1.16527
C          0.97914        0.13608       -2.49231
C         -1.06583        0.81463       -1.21538
N          1.00022        2.08836       -1.03973
C          1.78543        2.59686       -0.05245
N          2.09157        3.90219       -0.25582
O          2.20698        2.01305        0.93289
H          0.43060       -1.23276       -0.18715
H          0.49687        0.12139        0.94118
H          1.94701       -0.35979        0.03567
H          0.58791       -0.87293       -2.66371
H          0.68001        0.76016       -3.34262
H          2.07394        0.08053       -2.50010
H         -1.46182        1.25375       -0.29229
H         -1.39796        1.44966       -2.04509
H         -1.52453       -0.17199       -1.34465
H          0.75235        2.72847       -1.77685
H          2.67390        4.34645        0.44069
H          1.77622        4.43821       -1.04568
