27

O          0.85409        0.23323        0.06757
C          2.05754        0.06942       -0.06910
O          2.68745       -1.07266        0.34618
C          3.06651        1.05487       -0.69253
O          4.29144        0.35013       -0.96333
C          2.55033        1.75065       -1.94563
C          2.07368        1.18809       -3.12185
C          1.66783        2.04897       -4.14306
C          1.74506        3.44241       -3.98189
C          2.22267        4.00280       -2.79297
C          2.62114        3.15183       -1.77565
C          3.13315        3.44245       -0.45118
C          3.37192        4.65479        0.17472
C          3.86888        4.64355        1.48192
C          4.12161        3.43260        2.14733
C          3.88658        2.20942        1.51745
C          3.39120        2.22616        0.22105
H          3.64438       -0.98839        0.11587
H          4.45692        0.44240       -1.91950
H          1.99667        0.11241       -3.24841
H          1.27798        1.63918       -5.07266
H          1.41937        4.09396       -4.79008
H          2.26874        5.08077       -2.67818
H          3.17903        5.59728       -0.32672
H          4.06068        5.58474        1.99248
H          4.50468        3.45022        3.16540
H          4.08683        1.27653        2.03505
