38

C          0.87637       -0.02355       -0.12479
O          0.09540       -0.83586        0.74117
C          0.72120       -1.88497        1.35753
C         -0.10225       -2.61295        2.22008
C          0.38601       -3.71176        2.92200
O         -0.53228       -4.35953        3.70084
C         -0.10280       -5.55644        4.34110
C          1.72870       -4.05419        2.78685
C          2.58713       -3.32984        1.93356
C          4.01097       -3.81423        1.85582
O          4.23551       -4.90590        2.38391
N          5.00511       -3.03817        1.25779
O          4.81268       -1.63577        1.23809
C          6.34989       -3.45927        0.99456
C          7.38240       -2.50218        1.09828
C          8.72950       -2.84917        0.95764
C          9.07973       -4.16322        0.69052
C          8.08005       -5.11567        0.52082
C          6.71312       -4.77729        0.63110
C          5.74018       -5.87729        0.29475
C          2.05689       -2.26505        1.18986
H          0.24535        0.80476       -0.46211
H          1.18863       -0.58895       -1.00816
H          1.73718        0.40775        0.39666
H         -1.14546       -2.32612        2.33502
H          0.23323       -6.30053        3.61060
H          0.67762       -5.34671        5.07984
H         -0.96051       -5.97798        4.87380
H          2.13406       -4.89966        3.33602
H          4.90565       -1.41974        2.18436
H          7.15999       -1.46361        1.32791
H          9.50114       -2.09241        1.07141
H         10.12459       -4.44592        0.59501
H          8.36799       -6.13778        0.27852
H          6.13315       -6.49637       -0.52055
H          5.58154       -6.52868        1.15923
H          4.78645       -5.48534       -0.06881
H          2.67727       -1.74323        0.47209
