28

C          1.19131        0.05812       -0.25282
C          0.55422       -1.09165       -1.03708
C          1.13227       -2.45448       -0.69976
C          2.16466       -2.78638        0.15799
C          2.43787       -4.19427        0.21551
C          3.39820       -4.91526        0.96526
C          3.47325       -6.30782        0.86594
C          2.60513       -6.99773        0.03140
C          1.65247       -6.31160       -0.72520
C          1.58464       -4.90833       -0.62557
S          0.51694       -3.85955       -1.47062
N         -0.91176       -1.08065       -0.89695
O         -1.50746       -0.24004       -1.88616
C         -1.66232       -1.15754        0.24998
N         -1.11409       -1.78734        1.31481
O         -2.78426       -0.66096        0.33220
H          1.05356       -0.05471        0.82809
H          0.74596        1.01689       -0.54079
H          2.26760        0.11950       -0.44763
H          0.76938       -0.91803       -2.10118
H          2.71818       -2.05666        0.73728
H          4.08411       -4.38630        1.62242
H          4.21609       -6.85077        1.44551
H          2.66794       -8.08125       -0.03948
H          0.97786       -6.85324       -1.38238
H         -2.36016        0.00001       -1.46011
H         -1.76436       -1.89722        2.08316
H         -0.57505       -2.62025        1.11845
