32

C          0.61354       -0.10529        0.04126
N          0.32178       -0.47375        1.41761
C          0.78772       -1.57895        1.91046
C          1.67902       -2.50993        1.17992
C          1.09501       -3.61604        0.54760
C          1.89147       -4.50553       -0.17341
C          3.26322       -4.28026       -0.28350
C          3.84313       -3.16943        0.33449
C          3.05516       -2.28267        1.07400
Cl         3.83348       -0.92826        1.80642
C          0.46475       -1.89700        3.38979
O          1.43082       -1.23638        4.20469
C          0.41584       -3.37436        3.77634
C         -0.34273       -3.39264        5.10021
C         -1.30592       -2.21168        5.04090
C         -0.93825       -1.41808        3.78794
H         -0.07135        0.69405       -0.25957
H          0.46283       -0.93188       -0.65986
H          1.63086        0.28510       -0.05646
H          0.02266       -3.78555        0.61042
H          1.44232       -5.37083       -0.65620
H          3.88294       -4.96752       -0.85551
H          4.91252       -2.99898        0.23145
H          1.40173       -0.29568        3.94525
H         -0.14339       -3.96311        3.04113
H          1.40939       -3.81844        3.89702
H          0.35244       -3.26215        5.93778
H         -0.86697       -4.34117        5.25402
H         -1.20316       -1.59353        5.93969
H         -2.34793       -2.54580        4.99313
H         -0.97672       -0.34213        3.99073
H         -1.66469       -1.63842        2.99551
