32

C          1.00128        0.07082        0.07592
C          0.52624        1.12466       -0.91702
C          1.00736        0.90763       -2.36762
C          0.46676       -0.39604       -2.96890
O          0.61518        2.04796       -3.16141
O         -0.84397        2.08626       -3.21572
O          2.44767        0.83141       -2.30534
O          2.93833        0.73891       -3.68337
C          4.38146        0.73133       -3.63798
C          4.86178        2.09268       -3.12022
C          4.88837       -0.43678       -2.76162
C          4.40637       -1.80069       -3.24447
O          4.83433        0.56557       -5.00310
O          6.29463        0.56988       -5.00657
H          0.61113       -0.91992       -0.17404
H          0.64904        0.32203        1.08171
H          2.09360        0.01546        0.11124
H         -0.56859        1.17670       -0.88169
H          0.88454        2.10340       -0.57190
H         -0.62076       -0.46906       -2.86707
H          0.68714       -0.45034       -4.04110
H          0.92356       -1.27441       -2.50155
H         -0.90378        2.36686       -4.14729
H          4.48671        2.30269       -2.11353
H          5.95439        2.15765       -3.09531
H          4.50297        2.89454       -3.77566
H          5.98434       -0.44971       -2.74049
H          4.55772       -0.30626       -1.72427
H          4.76394       -2.01357       -4.25633
H          4.78391       -2.58666       -2.58240
H          3.31426       -1.86191       -3.24461
H          6.39519        0.18688       -5.89792
