30

N          0.99059       -0.16587       -0.02273
C          0.46261        0.35892        1.25589
C          0.87973        1.81961        1.51069
C          0.35868        2.86833        0.49254
C          1.38079        4.00735        0.30281
C          1.47727        4.92617        1.51699
C          0.11450        5.50934        1.88155
O          0.23000        6.28987        3.06575
C         -0.93248        4.41690        2.08369
C         -1.00564        3.47191        0.88471
C         -1.05297        0.16902        1.35287
O         -1.71189        0.16807        2.38134
O         -1.66899        0.08556        0.15073
H          0.34401        0.10443       -0.76785
H          1.88766        0.26437       -0.23539
H          0.89814       -0.26863        2.04274
H          0.57634        2.09654        2.52678
H          1.97816        1.84088        1.51772
H          0.24178        2.38401       -0.48418
H          1.08492        4.60516       -0.56941
H          2.37004        3.59587        0.07009
H          2.18136        5.74193        1.31248
H          1.89673        4.38397        2.37363
H         -0.21633        6.18330        1.08265
H          0.50297        5.70114        3.79005
H         -0.71855        3.85668        3.00185
H         -1.91309        4.87892        2.25235
H         -1.39429        4.03479        0.02561
H         -1.74200        2.69063        1.08861
H         -2.61439       -0.02906        0.38094
