26

C          1.34687        1.06283        0.11612
C          0.50166        1.20178       -1.14407
C          0.88937        0.20164       -2.23760
O         -0.09213       -0.84173       -2.35716
C          0.32369       -2.00308       -1.75579
C          0.05263       -2.18069       -0.39810
C          0.45839       -3.34684        0.24453
C          1.08363       -4.35366       -0.50039
N          1.49495       -5.59237        0.16790
O          1.85443       -6.54115       -0.54261
O          1.46818       -5.61231        1.40738
C          1.30114       -4.20252       -1.87904
C          0.94995       -3.00791       -2.51566
N          1.01342       -2.92386       -3.91304
H          1.23938        0.08055        0.57964
H          1.04428        1.81125        0.85567
H          2.40772        1.21642       -0.10506
H         -0.55923        1.10625       -0.88672
H          0.65650        2.21835       -1.52470
H          0.87091        0.72644       -3.20034
H          1.91008       -0.18445       -2.11519
H         -0.47956       -1.41225        0.15523
H          0.26270       -3.46267        1.30819
H          1.73144       -5.01306       -2.46282
H          1.74986       -3.46242       -4.35507
H          0.92595       -1.97395       -4.26400
