30

C          1.20000       -0.09065        0.04319
C          0.53779        0.20959       -1.30263
C          0.92748       -0.86609       -2.32005
C         -0.99706        0.29500       -1.18999
C         -1.52994        1.41160       -0.28165
C         -1.12490        2.83368       -0.68491
C         -1.61581        3.28399       -2.06506
C         -3.13981        3.33913       -2.23042
C         -3.85404        4.29137       -1.27550
O         -3.41701        5.62931       -1.46495
H          0.81341       -1.01924        0.47695
H          1.03097        0.71753        0.76095
H          2.28383       -0.19912       -0.07279
H          0.92950        1.16292       -1.67509
H          0.56875       -1.85439       -2.01351
H          0.50462       -0.64030       -3.30471
H          2.01593       -0.91970       -2.43094
H         -1.42846        0.41258       -2.19141
H         -1.38083       -0.66156       -0.81098
H         -2.62346        1.33955       -0.24830
H         -1.19616        1.23336        0.74716
H         -1.49179        3.52999        0.07793
H         -0.03308        2.92476       -0.65671
H         -1.19508        4.27456       -2.27608
H         -1.20497        2.62127       -2.83567
H         -3.34585        3.66240       -3.25864
H         -3.56517        2.33526       -2.12491
H         -4.93067        4.26738       -1.47225
H         -3.70775        4.01386       -0.22748
H         -2.49806        5.68820       -1.15271
