27

C          0.91365        0.16718       -0.02952
C          0.49145       -0.30816        1.36468
C          1.20825        0.52621        2.42908
C         -1.05950       -0.32331        1.49316
C         -1.52313       -1.47962        2.39890
C         -3.04774       -1.55494        2.46954
C         -3.65168       -0.23782        2.94314
C         -3.19294        0.93156        2.07634
C         -1.66866        1.00375        1.98458
H          0.56451        1.18401       -0.23281
H          0.50570       -0.49546       -0.80075
H          2.00448        0.15284       -0.13071
H          0.85533       -1.33967        1.46181
H          1.00979        1.59657        2.30481
H          0.90427        0.23098        3.43797
H          2.29286        0.38946        2.35634
H         -1.47476       -0.52688        0.49642
H         -1.14385       -2.43236        2.00814
H         -1.11276       -1.35975        3.40776
H         -3.34636       -2.36410        3.14619
H         -3.44754       -1.80425        1.47948
H         -3.36205       -0.05854        3.98483
H         -4.74586       -0.30483        2.92244
H         -3.57951        1.86876        2.49474
H         -3.61551        0.83196        1.07047
H         -1.28276        1.25545        2.97910
H         -1.38624        1.82170        1.31134
