18

N          0.68461        0.02106        0.08475
C          0.04679       -0.53145        1.17678
N          0.50143       -0.15795        2.38408
C         -0.07218       -0.65977        3.52084
C          0.41037       -0.23660        4.88580
F         -0.57859        0.35174        5.62089
F          0.81934       -1.30284        5.63569
F          1.45038        0.63970        4.88082
C         -1.10415       -1.56534        3.32093
N         -1.92820       -2.28985        4.14117
C         -2.75697       -3.02806        3.34033
N         -2.51348       -2.81908        2.06637
C         -1.49255       -1.90826        2.04111
N         -0.92387       -1.40636        0.93535
H          0.57066       -0.57873       -0.72124
H          1.62356        0.30158        0.32873
H         -1.93449       -2.29206        5.15301
H         -3.51103       -3.69437        3.73989
