28

O          1.09586        0.07279        0.09785
C          2.31146       -0.02102       -0.04197
O          2.95399       -1.21533        0.07292
O          4.33839       -1.01650        0.50301
C          4.86395       -2.26418        0.65050
O          4.26131       -3.32416        0.56985
C          6.33650       -2.19196        0.82206
C          7.08458       -3.33070        0.48798
C          8.47472       -3.31986        0.60223
C          9.12385       -2.17548        1.06113
C          8.38540       -1.04267        1.40781
C          6.99223       -1.04572        1.28844
C          3.09705        1.18702       -0.40667
C          4.16344        1.14387       -1.31375
C          4.83181        2.32106       -1.65974
C          4.42024        3.54337       -1.12655
C          3.33822        3.59555       -0.24906
C          2.67559        2.42100        0.10855
H          6.58527       -4.22972        0.12924
H          9.04826       -4.20390        0.33350
H         10.20779       -2.16850        1.15213
H          8.89901       -0.15630        1.77352
H          6.43825       -0.15402        1.57052
H          4.47115        0.20648       -1.77003
H          5.66392        2.28947       -2.35936
H          4.93238        4.46042       -1.40911
H          3.00099        4.55083        0.14631
H          1.81692        2.47105        0.77624
