28

C          0.44427       -0.52293       -0.36099
C          0.36960       -0.80502        1.12943
O          1.15934        0.20370        1.76605
C          2.41340       -0.17141        2.12334
O          2.71773       -1.31425        2.44305
N          3.30869        0.87077        2.01481
C          4.73214        0.63361        2.23570
C          5.56131        0.95583        0.97335
N          5.28586        2.27885        0.36680
C          5.82503        3.36719        1.18108
C          3.82948        2.43029        0.15736
C          2.97117        2.16288        1.41171
H          0.06112        0.48137       -0.57538
H         -0.12789       -1.25293       -0.93666
H          1.48584       -0.53486       -0.70254
H         -0.65981       -0.70949        1.48728
H          0.71259       -1.82135        1.34948
H          5.03998        1.27082        3.07124
H          4.91559       -0.40439        2.53228
H          5.34684        0.19400        0.21171
H          6.63059        0.85863        1.19691
H          5.40098        3.40748        2.18938
H          6.91185        3.26975        1.27533
H          5.63777        4.33254        0.69782
H          3.53153        1.72346       -0.62926
H          3.60607        3.42746       -0.24087
H          1.91565        2.21979        1.13077
H          3.14281        2.93100        2.17243
