26

C          1.03486        0.65983        0.22265
C          0.62739       -0.11733       -1.02012
C          1.14374       -1.55874       -1.02184
C          0.48595       -2.48489        0.00968
C         -0.96813       -2.85523       -0.30022
C         -1.14208       -3.75794       -1.52080
O         -0.69515       -5.09571       -1.22137
C          0.30380       -5.74294       -1.86466
C          1.32097       -4.91707       -2.59384
O          0.40849       -6.96113       -1.79295
H          0.56915        0.25230        1.12413
H          0.72458        1.70556        0.13103
H          2.12144        0.64182        0.35619
H         -0.46132       -0.09150       -1.13184
H          1.04206        0.39726       -1.89558
H          1.01593       -1.96850       -2.02891
H          2.22513       -1.54591       -0.83726
H          1.07856       -3.40289        0.09253
H          0.52586       -2.01860        1.00020
H         -1.37272       -3.37583        0.57698
H         -1.56442       -1.94675       -0.43388
H         -2.21389       -3.84615       -1.73262
H         -0.68650       -3.34197       -2.41992
H          1.88528       -4.30789       -1.88647
H          2.03173       -5.59147       -3.08346
H          0.86925       -4.31149       -3.37942
