16

C          1.06190       -0.09418        0.09275
C          0.62291        0.97682        1.05148
C         -0.29317        0.66095        2.06937
C         -0.71454        1.64548        2.96110
O         -1.60253        1.36801        3.95740
C         -0.24279        2.94757        2.86274
C          0.66305        3.27589        1.85534
C          1.09248        2.29775        0.95317
Cl         2.20945        2.76985       -0.27767
H          0.72086        0.14041       -0.92064
H          0.64615       -1.07039        0.36462
H          2.15207       -0.19374        0.10018
H         -0.67103       -0.35385        2.15738
H         -1.85266        0.43113        3.90319
H         -0.57998        3.70431        3.56546
H          1.02942        4.29612        1.77764
