29

C          0.93192        0.11231        0.04271
N          0.29965       -0.63009        1.10355
C         -0.53930       -0.13700        2.06491
O         -1.01526       -0.88037        2.91501
O         -0.76148        1.22714        1.94807
C         -1.59227        1.81995        2.90951
C         -2.68436        2.54438        2.44836
C         -3.52496        3.20960        3.35489
C         -4.68076        3.98917        2.78390
C         -3.22977        3.17291        4.74144
C         -4.12594        3.90140        5.71359
C         -2.10546        2.43731        5.19426
C         -1.74557        2.33797        6.65300
C         -1.28654        1.77614        4.26482
H          0.63948        1.16396        0.03845
H          0.65108       -0.34936       -0.90727
H          2.01428        0.03307        0.17150
H          0.47025       -1.62369        1.18347
H         -2.88299        2.58870        1.38072
H         -4.32636        4.95248        2.40373
H         -5.14478        3.43333        1.96143
H         -5.47035        4.17144        3.51718
H         -4.21646        4.95453        5.42711
H         -5.11793        3.43809        5.72605
H         -3.75040        3.88999        6.73940
H         -1.50921        3.32828        7.05482
H         -2.57086        1.89392        7.21879
H         -0.86662        1.70335        6.81024
H         -0.41445        1.22076        4.59998
