56

C          1.33390       -0.29332       -0.18349
C          0.82218        0.99976       -0.09201
C         -0.54546        1.25226        0.12693
C         -1.07158        2.70096        0.39521
C          0.13188        3.67271        0.59440
C          0.54691        4.60794       -0.36682
C          1.70883        5.36912       -0.17971
C          2.51317        5.18455        0.94420
O          3.60430        6.00348        1.02321
C          4.54272        5.78594        2.08303
C          4.22003        6.54343        3.33895
C          2.93528        7.30904        3.55489
O          3.14085        6.01119        4.12512
C          2.13983        4.23389        1.88391
C          0.95472        3.51559        1.72943
C         -2.02509        3.11643       -0.77123
C         -2.78596        4.42998       -0.52675
C         -3.51681        4.45166        0.81121
C         -2.60879        4.05445        1.96732
C         -1.94596        2.70227        1.69774
C         -1.39331        0.13259        0.13137
C         -0.88333       -1.16823       -0.01751
C          0.48796       -1.38863       -0.15761
O          0.87262       -2.69077       -0.32203
C          2.27623       -2.98525       -0.30047
C          2.90235       -2.97582       -1.66629
C          2.34460       -2.22671       -2.85553
O          3.42525       -1.69977       -2.07898
H          2.40822       -0.38438       -0.29931
H          1.54962        1.80232       -0.17631
H         -0.00068        4.75729       -1.29252
H          1.99641        6.09910       -0.93270
H          4.73284        4.72165        2.26698
H          5.49389        6.18265        1.70800
H          5.10788        6.82287        3.88927
H          2.93999        8.15068        4.23463
H          2.22438        7.39977        2.74299
H          2.73749        4.01616        2.76131
H          0.72679        2.76277        2.48119
H         -1.48481        3.17334       -1.72431
H         -2.78365        2.33563       -0.92127
H         -3.51182        4.58102       -1.33471
H         -2.10479        5.28551       -0.57006
H         -4.37001        3.76382        0.76872
H         -3.92641        5.45221        0.99206
H         -3.19953        3.99219        2.88851
H         -1.85264        4.83008        2.13432
H         -2.75127        1.96083        1.61795
H         -1.37049        2.39785        2.57888
H         -2.46828        0.24534        0.25243
H         -1.56497       -2.01431       -0.01529
H          2.82982       -2.37868        0.42716
H          2.34948       -4.01144        0.07966
H          3.55023       -3.82573       -1.83123
H          2.57911       -2.58335       -3.84996
H          1.37792       -1.74504       -2.78096
