36

O          1.18891       -0.10054        0.04601
C          2.41864       -0.02860        0.09377
N          3.07517        1.18229        0.15330
C          2.28803        2.41156        0.20897
C          2.10994        2.94620        1.60499
C          2.96726        2.59325        2.80465
O          3.20118        3.77832        2.04305
C          4.44428        1.30623        0.05094
O          4.99219        2.40574       -0.03277
N          5.16535        0.13268        0.04293
C          6.62009        0.22747       -0.02163
C          7.14412        0.25965       -1.43239
C          6.38123        0.75492       -2.64584
O          7.30401        1.59411       -1.95074
C          4.59008       -1.11031        0.19158
O          5.26573       -2.11522        0.41506
N          3.21403       -1.15590        0.09118
C          2.56954       -2.46725        0.08009
C          2.49017       -3.09276       -1.28724
C          3.18679       -2.58919       -2.53508
O          3.73974       -3.64289       -1.74428
H          2.74926        3.17810       -0.42531
H          1.29367        2.23048       -0.21482
H          1.11765        3.34738        1.76711
H          2.54817        2.72376        3.79509
H          3.70407        1.80455        2.74212
H          6.96033        1.11207        0.52928
H          7.06808       -0.63423        0.48649
H          7.98226       -0.40984       -1.57694
H          6.68304        0.40277       -3.62479
H          5.33047        0.99882       -2.57392
H          3.09641       -3.14599        0.76094
H          1.54896       -2.37941        0.47074
H          1.62192       -3.73124       -1.39458
H          2.77869       -2.86509       -3.50012
H          3.70018       -1.63811       -2.53135
