19

O          0.89267       -0.01139        0.09656
C          2.11064        0.02244        0.09424
O          2.86261       -0.51038       -0.88904
C          2.93646        0.64656        1.14692
C          2.33441        1.20497        2.20877
C          3.06120        1.84724        3.31122
C          4.16155        2.68691        3.08693
C          4.81290        3.30742        4.15625
C          4.36435        3.10330        5.45985
C          3.26114        2.28350        5.68673
Br         2.64362        2.01526        7.45385
C          2.60585        1.66133        4.62272
H          3.82615       -0.43206       -0.77448
H          4.01251        0.63251        1.04663
H          1.24883        1.18194        2.30310
H          4.51487        2.88327        2.07741
H          5.66444        3.95752        3.97064
H          4.87338        3.59156        6.28672
H          1.74379        1.02671        4.81652
