17

N          1.06100       -0.00112        0.05203
N          0.43559        0.24288        1.28952
C         -0.36590        1.33643        1.57490
O         -0.65720        1.60899        2.73751
C         -0.85334        2.21211        0.48466
C         -0.87445        3.58986        0.70730
C         -1.33391        4.40376       -0.31054
N         -1.76761        3.93678       -1.49923
C         -1.76200        2.59745       -1.66416
Cl        -2.34083        2.06479       -3.18785
C         -1.32900        1.69368       -0.71677
H          1.37549        0.88611       -0.35180
H          1.92559       -0.52393        0.22160
H          0.70106       -0.30413        2.10875
H         -0.54077        4.01422        1.64916
H         -1.36703        5.48379       -0.19451
H         -1.36551        0.62696       -0.90423
