18

O          1.10701        0.36643        0.24791
C          2.26569        0.07504        0.01773
O          2.93333        0.42768       -1.09554
C          3.04286       -0.78256        0.92999
C          2.67348       -2.12921        1.07622
Cl         1.47939       -2.82237        0.01838
C          3.29701       -2.91977        2.05932
Cl         2.82950       -4.58571        2.26104
C          4.29948       -2.36352        2.87919
Cl         5.06625       -3.34071        4.10115
C          4.68639       -1.01978        2.70832
Cl         5.98406       -0.35530        3.65661
C          4.04752       -0.23118        1.73882
C          4.40717        1.18714        1.59020
O          4.37612        2.04197        2.44803
O          4.83114        1.42660        0.33520
H          3.91151        0.41351       -1.01484
H          5.02433        2.39559        0.34346
