43

C          1.18291       -0.35283        0.22871
C          0.93723        0.87129        1.09780
C          1.37246        2.18197        0.43624
C          0.65513        2.52160       -0.87543
C         -0.86703        2.66372       -0.76433
C         -1.34324        3.80183        0.14573
C         -0.92583        5.20674       -0.30604
C         -1.45106        5.62603       -1.68481
C         -2.97852        5.67304       -1.80859
C         -3.67324        6.66124       -0.86544
C         -3.28851        8.13194       -1.06712
C         -3.67820        8.71329       -2.42934
C         -5.16099        8.73761       -2.63358
C         -5.74781        9.01133       -3.99306
O         -5.67143        7.68215       -3.45630
H          0.57060       -0.33283       -0.67759
H          0.92728       -1.26351        0.77949
H          2.23514       -0.41880       -0.06570
H         -0.12056        0.91548        1.37857
H          1.49845        0.75243        2.03243
H          1.23602        3.00003        1.15307
H          2.45050        2.13481        0.23711
H          1.08363        3.44675       -1.27786
H          0.87971        1.75069       -1.62170
H         -1.27893        2.80187       -1.77054
H         -1.29809        1.72296       -0.40336
H         -2.43554        3.75260        0.22344
H         -0.97223        3.63694        1.16388
H         -1.25861        5.92930        0.44802
H          0.16779        5.27918       -0.31232
H         -1.03334        6.60808       -1.93434
H         -1.06023        4.94388       -2.44858
H         -3.23802        5.91203       -2.84619
H         -3.39061        4.67313       -1.62941
H         -4.75783        6.55005       -0.98209
H         -3.46252        6.38551        0.17429
H         -3.77244        8.72225       -0.27869
H         -2.21013        8.25955       -0.92036
H         -3.31266        9.74604       -2.47958
H         -3.17525        8.17041       -3.23774
H         -5.72762        9.03988       -1.76344
H         -6.72686        9.47085       -4.04411
H         -5.08440        9.26211       -4.81028
