31

C          1.28170        0.13579       -0.06231
C          0.58677       -0.04758        1.28830
C          1.20957        0.94636        2.29239
C         -0.99509       -0.01804        1.30865
C         -1.79321       -0.70530        0.10731
C         -1.81707        0.04006       -1.24153
C         -1.42088       -2.17128       -0.18681
C         -1.41663       -0.74670        2.59354
O         -1.07330       -2.03841        2.73570
N         -2.04558       -0.23743        3.58347
C         -2.35379        1.09037        3.57340
O         -2.82512        1.59117        4.58369
N         -2.12239        1.88732        2.49078
C         -1.49574        1.41704        1.47935
O         -1.21921        2.30360        0.51050
H          1.07534        1.10633       -0.51635
H          1.01308       -0.65396       -0.76682
H          2.36946        0.07303        0.06395
H          0.91601       -1.03607        1.63124
H          1.06636        1.98528        1.97650
H          0.78531        0.82824        3.29415
H          2.28942        0.78231        2.37691
H         -2.84931       -0.73098        0.41838
H         -0.82068        0.22660       -1.64391
H         -2.35734       -0.54184       -1.99824
H         -2.35662        0.98793       -1.17210
H         -1.88128       -2.84528        0.54188
H         -1.80272       -2.49844       -1.16091
H         -0.34180       -2.33866       -0.18788
H         -0.50403       -2.40596        2.04722
H         -0.68430        1.97295       -0.22086
