25

C          1.21756        0.37942        0.46126
C          0.52034        1.68293        0.10212
C          0.73417        2.10621       -1.35357
C          0.08224        1.20475       -2.41267
N         -1.36956        1.40568       -2.50357
C         -1.90683        2.44897       -3.26026
N         -3.24366        2.35076       -3.57810
N         -1.10071        3.37720       -3.70924
N         -1.59160        4.33952       -4.50703
O         -2.66540        4.89471       -4.22057
O         -0.92023        4.65577       -5.49686
N         -2.15695        0.59957       -1.71598
O         -1.67235       -0.47502       -1.35084
O         -3.28028        1.01525       -1.40608
H          0.80572       -0.46881       -0.09135
H          1.09520        0.17089        1.52899
H          2.29020        0.43832        0.25057
H         -0.54689        1.61135        0.33381
H          0.92293        2.47201        0.74927
H          0.37249        3.13507       -1.46567
H          1.81367        2.13895       -1.54857
H          0.52814        1.45140       -3.38583
H          0.36185        0.15602       -2.26163
H         -3.67434        3.21380       -3.91593
H         -3.83587        1.95719       -2.84285
