22

Cl        -1.66333       -1.90709       -0.01766
C         -0.54346       -0.59200       -0.01685
C          0.80631       -0.88900        0.17983
C          1.75547        0.13746        0.19718
Cl         3.40385       -0.30374        0.48649
C          1.37593        1.47979       -0.00143
C          2.35344        2.59297       -0.00477
C          3.16250        2.84075       -1.13342
Cl         3.02484        1.89797       -2.58091
C          4.10380        3.87121       -1.13904
C          4.24779        4.69503       -0.02386
Cl         5.43288        5.95174       -0.12415
C          3.45178        4.49486        1.11119
Cl         3.62080        5.54583        2.48535
C          2.51406        3.44121        1.12038
Cl         1.53408        3.16385        2.53810
C          0.00979        1.75812       -0.20033
C         -0.94465        0.73394       -0.20025
Cl        -2.59801        1.17978       -0.42549
H          1.11941       -1.92056        0.32477
H          4.72473        4.03428       -2.01824
H         -0.31713        2.78705       -0.34596
