56

C          2.70995       -0.37879        1.25701
O          1.45183       -0.51599        1.91253
C          1.12349       -1.87829        2.20289
C          0.27923       -2.53527        1.10999
O          0.79545       -2.18589       -0.18214
C         -0.08835       -1.60505       -1.04544
O         -1.29901       -1.56486       -0.88681
C          0.65261       -1.13182       -2.28476
C          0.37997       -2.12075       -3.38591
C          0.73057       -3.57242       -3.13602
N         -0.17806       -1.83981       -4.51459
C         -0.50356       -0.54738       -4.84873
C         -1.25103       -0.53567       -6.16466
C         -0.16003        0.52363       -4.09822
C         -0.34627        1.93022       -4.59635
O         -1.08618        2.26418       -5.50272
O          0.41819        2.79103       -3.87257
C          0.25805        4.21740       -4.06123
C          0.81317        4.68026       -5.40266
C         -1.17155        4.69280       -3.80510
C          0.42219        0.34631       -2.69898
C         -0.31137        1.16036       -1.61806
C         -1.70064        1.38271       -1.67596
C         -2.36721        2.08011       -0.66487
C         -1.66834        2.53462        0.44949
C         -0.29092        2.31123        0.52574
N          0.43988        2.74968        1.71673
O         -0.20215        2.88313        2.76903
O          1.65103        2.98462        1.59095
C          0.39553        1.65948       -0.51097
H          3.04173        0.65644        1.36245
H          2.61295       -0.58965        0.18940
H          3.47323       -1.02801        1.69398
H          2.03207       -2.46000        2.39404
H          0.54669       -1.88256        3.13435
H          0.33036       -3.62511        1.21548
H         -0.76778       -2.24157        1.23394
H          1.72852       -1.22371       -2.06985
H         -0.12092       -4.07059       -2.66371
H          0.95843       -4.07373       -4.08060
H          1.60213       -3.64747       -2.48044
H         -0.65182       -1.02214       -6.94147
H         -2.17774       -1.11211       -6.04663
H         -1.54617        0.43573       -6.54858
H          0.88215        4.67154       -3.28177
H          0.26489        4.25273       -6.24656
H          0.76978        5.77110       -5.48712
H          1.85702        4.36636       -5.50846
H         -1.50518        4.37618       -2.81194
H         -1.23755        5.78380       -3.86152
H         -1.88633        4.28358       -4.52417
H          1.43206        0.78450       -2.76703
H         -2.29312        0.99822       -2.50546
H         -3.43978        2.24379       -0.74111
H         -2.20364        3.04790        1.24484
H          1.47103        1.51823       -0.44376
