44

O          1.17784        0.21141       -0.52084
C          2.27249        0.34769        0.00854
N          3.24558        1.08984       -0.62735
C          4.43788        0.55166       -1.07741
O          4.84569        0.75855       -2.21621
C          5.22540       -0.29547       -0.18454
C          5.19618       -1.67701       -0.32844
F          4.41897       -2.25264       -1.25506
C          5.95231       -2.48752        0.51590
C          6.75914       -1.90747        1.49800
C          6.79950       -0.51803        1.63426
C          6.02946        0.28125        0.79165
F          6.05873        1.61114        0.95537
N          2.64439       -0.10524        1.25210
C          1.96077       -1.05798        2.03806
C          2.24117       -1.06800        3.40922
C          1.61152       -1.98692        4.25566
C          0.69811       -2.91303        3.74647
O          0.16569       -3.78189        4.67484
C         -0.94907       -4.50104        4.31890
C         -2.20370       -3.89408        4.41603
C         -3.35452       -4.62497        4.11189
C         -3.26296       -5.96931        3.71416
C         -4.50956       -6.76603        3.41035
F         -5.03916       -7.33696        4.52613
F         -5.50323       -6.01136        2.86569
F         -4.29128       -7.78460        2.53371
C         -1.99646       -6.57571        3.64965
C         -0.84505       -5.84705        3.95778
Cl         0.68435       -6.63962        3.87238
C          0.44051       -2.93550        2.37705
C          1.07504       -2.01989        1.53471
F          0.86667       -2.15788        0.21871
H          2.81176        1.52799       -1.43378
H          5.90792       -3.56725        0.40066
H          7.35710       -2.53829        2.15258
H          7.42922       -0.05471        2.38907
H          3.30971        0.48891        1.72747
H          2.94312       -0.35999        3.84220
H          1.83740       -1.98128        5.31995
H         -2.28593       -2.85709        4.73275
H         -4.32874       -4.14218        4.19000
H         -1.91116       -7.62261        3.36052
H         -0.22150       -3.66483        1.92315
