43

C          0.77431        0.03567       -0.09458
C          0.70625        0.53569       -1.52962
N          1.21552       -0.43850       -2.49757
C          0.26566       -1.31955       -3.20152
C         -0.10281       -0.86076       -4.61855
Cl         0.66590       -1.87701       -5.87644
C          2.57177       -0.53287       -2.75041
C          3.49561       -0.89814       -1.77130
C          4.87205       -0.95684       -2.04812
C          5.37586       -0.68570       -3.32818
N          6.78046       -0.65407       -3.49165
N          7.16498       -1.48161       -4.34410
C          8.57004       -1.43973       -4.48928
C          9.36411       -2.43786       -3.89313
Cl         8.66122       -3.64739       -2.87306
C         10.74575       -2.50200       -4.10880
C         11.35431       -1.56039       -4.94313
N         12.79289       -1.65285       -5.21905
O         13.28075       -0.82335       -6.00081
O         13.42718       -2.55589       -4.66212
C         10.60060       -0.54405       -5.53254
C          9.22058       -0.48646       -5.30185
Cl         8.37225        0.80596       -6.07661
C          4.45512       -0.36748       -4.33882
C          4.80883       -0.13489       -5.77860
C          3.08567       -0.26425       -4.01970
H          0.49492       -1.01948       -0.01450
H          0.10318        0.62013        0.54319
H          1.78095        0.15748        0.31671
H         -0.34255        0.75781       -1.76452
H          1.24016        1.48929       -1.62189
H          0.63178       -2.35319       -3.18783
H         -0.66614       -1.33817       -2.62103
H         -1.17832       -0.97140       -4.78192
H          0.15858        0.18410       -4.81222
H          3.16101       -1.16711       -0.77463
H          5.55850       -1.22592       -1.24850
H         11.32655       -3.29339       -3.63857
H         11.06812        0.19678       -6.18049
H          4.27129       -0.85806       -6.40322
H          4.52582        0.87752       -6.08121
H          5.86344       -0.26656       -5.99618
H          2.41675        0.06881       -4.80630
