41

C          1.98505       -0.16654       -0.81292
C          0.95232       -1.10447       -1.54371
C          0.47070       -0.19873       -2.68229
C         -0.66159        0.82011       -2.21857
C         -1.00474        1.31619       -0.72360
C         -0.81796        0.67514        0.73963
C         -1.10140       -0.84145        1.20472
C         -0.07210       -1.73941        0.52640
C          0.46324       -3.15944        0.66469
C          1.53955       -3.38047       -0.47465
C          2.28445       -4.56115       -0.46982
C          3.22978       -4.79104       -1.47365
C          3.42783       -3.85488       -2.49119
O          4.40708       -4.11633       -3.40602
C          2.67616       -2.68812       -2.56466
C          1.72925       -2.43126       -1.57203
C         -0.38220       -1.58092       -0.93355
N         -1.13595       -2.67218       -1.61716
H          2.43111       -0.57972        0.09842
H          1.58807        0.82302       -0.58244
H          2.84849        0.01177       -1.47109
H          1.30082        0.37326       -3.11733
H          0.08234       -0.79938       -3.51521
H         -0.53188        1.72664       -2.82662
H         -1.60357        0.40069       -2.60887
H         -0.51866        2.30013       -0.64805
H         -2.07855        1.55420       -0.77184
H         -1.44470        1.29395        1.39797
H          0.20445        0.91692        1.05833
H         -0.97118       -0.89096        2.29264
H         -2.13658       -1.12182        0.98334
H          0.81333       -1.20348        0.86725
H          0.94523       -3.29904        1.63903
H         -0.32868       -3.91090        0.56568
H          2.14231       -5.30427        0.31120
H          3.82641       -5.69846       -1.45930
H          4.54215       -3.31838       -3.94444
H          2.83957       -1.96596       -3.35869
H         -1.18611       -0.87297       -1.01104
H         -1.39334       -2.36035       -2.55347
H         -0.52918       -3.47741       -1.77546
