40

C          0.97050        0.26953       -0.07603
C          0.40267       -1.10282        0.34396
C          0.72758       -1.30258        1.83135
C         -1.14278       -1.02562        0.23353
C          0.90304       -2.25952       -0.60399
O          0.42645       -1.89992       -1.92241
C          2.43552       -2.53520       -0.69445
C          3.11465       -3.25881        0.49663
C          2.72181       -4.69314        0.78953
C          1.51727       -5.00938        1.43022
C          1.16310       -6.33698        1.68260
C          2.02071       -7.36482        1.30715
Cl         1.58102       -8.99888        1.61494
C          3.23133       -7.07432        0.68625
C          3.58025       -5.74491        0.42954
N          2.78983       -3.21984       -1.94443
C          3.67470       -2.80883       -2.89501
N          3.78452       -3.73181       -3.82188
C          2.89377       -4.68288       -3.41511
N          2.21797       -4.38794       -2.30175
H          0.55247        1.07097        0.54546
H          0.73298        0.51017       -1.11710
H          2.05798        0.30836        0.04253
H          0.24466       -0.52976        2.44278
H          0.36018       -2.26093        2.20133
H          1.79539       -1.21655        2.03725
H         -1.46820       -0.75095       -0.77556
H         -1.59940       -1.99037        0.48343
H         -1.55588       -0.27699        0.91926
H          0.37561       -3.18254       -0.34130
H          0.35295       -2.73243       -2.43251
H          2.93115       -1.56044       -0.79016
H          4.19988       -3.24484        0.31307
H          3.00624       -2.68831        1.41980
H          0.82699       -4.23571        1.74113
H          0.21661       -6.55802        2.16857
H          3.90413       -7.87480        0.39178
H          4.52501       -5.54118       -0.07086
H          4.20029       -1.86438       -2.86163
H          2.73037       -5.61165       -3.94715
