14

C          0.96230       -0.01848       -0.07258
C          0.39306        1.29218        0.45948
C          0.96230        2.52530       -0.23358
O         -1.05058        1.29373        0.48396
C         -1.76300        1.22010       -0.67926
O         -1.23717        1.15017       -1.78418
Cl        -3.48378        1.23690       -0.41379
H          0.76064       -0.15443       -1.13882
H          0.51159       -0.86931        0.44922
H          2.04706       -0.05690        0.06950
H          0.68340        1.35899        1.51510
H          0.76063        2.52573       -1.30845
H          0.51158        3.43513        0.17679
H          2.04706        2.58133       -0.09748
