97

C          1.86289       -2.28919        0.64708
O          1.61613       -2.57436       -0.72363
C          0.88380       -1.56802       -1.42866
C          1.64159       -0.17492       -1.24931
C          2.30143        0.57892       -2.17139
O          3.29023        1.58453       -1.99338
C          4.38694        1.27196       -1.09137
C          4.04183        1.78025        0.31379
O          5.78224        1.93798       -1.29259
C          6.70503        1.03126       -0.74586
C          8.01599        1.22089       -0.28754
C          8.69655        2.56210       -0.32750
C          8.70695        0.07728        0.23311
O          9.98139        0.25914        0.71635
C          8.11374       -1.20508        0.25992
C          6.83267       -1.36110       -0.26984
C          6.18014       -0.24075       -0.72514
C          4.92054       -0.11989       -1.37288
O          4.62214       -0.90818       -2.25816
C          6.17091       -2.67673       -0.35564
O          4.95467       -2.76795       -0.40426
C          7.08884       -3.86835       -0.27745
N          7.92088       -3.97404       -1.50305
C          7.93304       -3.64583        0.96573
N          7.78001       -4.17440        2.14917
C          6.59882       -4.83877        2.37085
O          5.52625       -4.43448        1.93006
C          6.64643       -5.97065        3.34476
C          7.59569       -5.85155        4.49677
C          5.75449       -6.98618        3.29122
C          4.75271       -7.18743        2.26840
C          3.68661       -7.99735        2.36581
C          2.63805       -8.01379        1.26055
C          2.52869       -9.45050        0.73804
C          1.27056       -7.36679        1.69972
O          1.48648       -6.25248        2.57167
C          0.39054       -6.90823        0.46286
C         -0.41765       -8.16225        0.03299
C         -0.48365       -5.56147        0.59992
O          0.10492       -4.60256        1.46262
C         -0.79494       -4.79294       -0.79410
C         -1.74849       -5.78051       -1.49898
C         -1.32626       -3.26574       -0.61392
O         -2.80132       -3.21772       -0.81775
C         -3.54496       -3.33016       -1.94090
C         -2.87232       -3.41972       -3.28356
O         -4.77197       -3.38900       -1.86657
C         -0.68467       -1.83080       -1.16830
C         -1.29882       -0.68432       -0.31284
C          8.79703       -2.39532        0.85589
O          9.94118       -2.34460        1.27387
H          1.97201       -3.22659        1.18747
H          1.05824       -1.70218        1.10167
H          2.80972       -1.75090        0.74718
H          1.02289       -1.81814       -2.48975
H          1.75908        0.11549       -0.21284
H          2.22547        0.40434       -3.24122
H          4.13261        2.87810        0.32289
H          3.02212        1.56246        0.62393
H          4.72778        1.41741        1.08582
H          8.80487        2.90542       -1.36052
H          8.13331        3.29822        0.25237
H          9.70696        2.53167        0.09979
H         10.34828       -0.58904        1.05709
H          6.50744       -4.78987       -0.21564
H          7.29470       -4.16056       -2.29464
H          8.39664       -3.10755       -1.75188
H          7.05351       -5.49767        5.38107
H          8.04874       -6.81987        4.73106
H          8.41128       -5.14907        4.30928
H          5.75372       -7.71961        4.09684
H          4.84789       -6.59797        1.35770
H          3.50914       -8.60640        3.24933
H          3.02477       -7.40674        0.43114
H          1.89939      -10.07338        1.38241
H          2.12390       -9.47596       -0.27620
H          3.51549       -9.92744        0.67797
H          0.71770       -8.09498        2.30700
H          2.21498       -6.46136        3.18216
H          1.08860       -6.68292       -0.35378
H         -0.71169       -8.77725        0.89106
H         -1.34145       -7.97133       -0.50228
H          0.18350       -8.79341       -0.62783
H         -1.43135       -5.83603        1.08255
H          0.58061       -5.10047        2.16085
H          0.14134       -4.72576       -1.35655
H         -2.46216       -6.22610       -0.79188
H         -2.35851       -5.40920       -2.29955
H         -1.16772       -6.57599       -1.97527
H         -1.26981       -3.11440        0.46842
H         -3.26110       -4.30529       -3.80651
H         -3.10571       -2.53866       -3.87985
H         -1.79046       -3.53592       -3.21665
H         -1.14257       -1.67591       -2.15417
H         -1.95385       -0.05741       -0.92846
H         -1.90868       -1.05871        0.51647
H         -0.54813       -0.02971        0.13508
