24

O          1.15367        0.00350       -0.22008
C          2.37399       -0.05561       -0.10590
C          3.09397        0.98991        0.65847
C          4.29538        1.52926        0.18239
C          4.96301        2.49955        0.93014
C          4.43011        2.93320        2.14457
C          3.22155        2.41063        2.60805
C          2.54597        1.44477        1.86131
C          3.11997       -1.17775       -0.72849
C          4.22979       -1.75037       -0.09274
C          4.91369       -2.80479       -0.70237
C          4.48414       -3.28758       -1.93834
Cl         5.33609       -4.57899       -2.69013
C          3.36824       -2.73429       -2.56622
C          2.67866       -1.68294       -1.95683
H          4.71145        1.21402       -0.77107
H          5.89544        2.92247        0.56399
H          4.95284        3.68842        2.72695
H          2.80395        2.75870        3.54964
H          1.60038        1.04306        2.21909
H          4.56220       -1.39791        0.88086
H          5.77414       -3.24750       -0.20692
H          3.02869       -3.11719       -3.52516
H          1.80256       -1.25567       -2.44128
