51

C         -0.14027        1.78037        1.17090
C         -0.10819        2.94116        0.19469
C          0.91211        2.76933       -0.93602
C          0.39128        2.00549       -2.16056
N         -0.52864        2.49558       -2.94337
O         -0.91933        3.78073       -2.54018
C         -1.72114        4.38369       -3.55441
C         -0.85213        4.86307       -4.70259
C          0.99225        0.66346       -2.56854
C          2.34138        0.34795       -1.99315
O          3.37072        0.81521       -2.48555
C          2.40413       -0.39475       -0.68149
C          1.41885       -1.56057       -0.54383
C          1.31216       -1.89159        0.97073
C          0.38572       -3.05308        1.35463
C          0.92629       -4.41605        0.93934
S         -0.08337       -3.04493        3.14019
C          1.45165       -2.58082        4.01267
C          2.52448       -3.65084        3.98027
C          0.04098       -1.29643       -1.15880
C          0.05817       -0.51113       -2.44805
O         -0.74236       -0.79613       -3.34160
H         -0.46659        0.86989        0.67558
H         -0.85015        1.98171        1.97937
H          0.84182        1.60687        1.61979
H         -1.12042        3.09117       -0.19342
H          0.15232        3.84343        0.76061
H          1.19720        3.76694       -1.29638
H          1.83754        2.34130       -0.55255
H         -2.49693        3.68937       -3.89511
H         -2.22150        5.24306       -3.09602
H         -0.41574        4.01472       -5.23964
H         -1.43685        5.45660       -5.41084
H         -0.01872        5.46930       -4.33220
H          1.17935        0.74666       -3.65179
H          2.25514        0.33736        0.11629
H          3.42482       -0.78072       -0.56352
H          1.85726       -2.41967       -1.06888
H          2.32487       -2.08947        1.34418
H          0.96366       -0.98444        1.48125
H         -0.57644       -2.92066        0.84964
H          1.92901       -4.60420        1.32958
H          0.26975       -5.22576        1.27653
H          0.98566       -4.48573       -0.15183
H          1.83391       -1.62366        3.64618
H          1.16506       -2.41328        5.05704
H          3.01026       -3.70656        3.00364
H          3.30668       -3.41073        4.70862
H          2.12493       -4.63711        4.23689
H         -0.62895       -0.78235       -0.46936
H         -0.42635       -2.26508       -1.38028
