48

C          2.50090        0.06854        0.02229
N          1.09813        0.04435       -0.39111
C          0.39519        1.26415        0.08327
C         -1.13424        1.24721       -0.19138
N         -1.69066        0.02981        0.41174
C         -3.02134       -0.04684        0.79225
C         -3.32293       -0.86830        1.89166
C         -4.61261       -0.98803        2.43250
C         -5.65095       -0.30657        1.78407
C         -5.38790        0.51948        0.68208
C         -4.08192        0.65656        0.21216
F         -3.86975        1.45747       -0.84352
C         -7.04570       -0.47299        2.26168
O         -7.94683        0.14702        1.70995
C         -7.28474       -1.40147        3.39844
C         -8.64041       -1.68857        3.90753
O         -9.69727       -1.25869        3.48376
O         -8.64986       -2.54087        4.95385
C         -6.20236       -1.96707        3.96034
N         -4.87427       -1.79586        3.58407
C         -3.84141       -2.39766        4.37217
C         -3.78656       -3.79179        4.53772
C         -2.73681       -4.38077        5.24703
C         -1.74524       -3.57906        5.80048
F         -0.73017       -4.14804        6.46313
C         -1.78766       -2.19719        5.67057
C         -2.83731       -1.60704        4.96413
C         -1.08337       -1.19838       -0.13341
C          0.43499       -1.16746        0.14596
H          3.00967        0.94597       -0.39017
H          2.61241        0.08667        1.11311
H          3.02698       -0.81351       -0.35954
H          0.54636        1.37983        1.16599
H          0.82652        2.14587       -0.40438
H         -1.32729        1.27004       -1.27081
H         -1.57477        2.14463        0.25910
H         -2.49382       -1.40573        2.34507
H         -6.18992        1.05666        0.18226
H         -9.60579       -2.62468        5.16069
H         -6.31146       -2.62506        4.82028
H         -4.54183       -4.42716        4.08171
H         -2.67933       -5.45880        5.35877
H         -1.00312       -1.58934        6.11016
H         -2.86413       -0.52385        4.86270
H         -1.27020       -1.25755       -1.21368
H         -1.50180       -2.10578        0.31765
H          0.88748       -2.06034       -0.30130
H          0.58608       -1.23037        1.23274
