19

O          3.33951       -0.67136        0.00897
C          2.07195       -0.16747        0.00705
C          1.83889        1.20209        0.00549
C          0.52403        1.67301        0.00275
C         -0.56057        0.77936        0.00181
C         -1.88791        1.23784       -0.00146
C         -2.95404        0.33667       -0.00177
C         -2.70765       -1.03322        0.00133
C         -1.39441       -1.50599        0.00418
C         -0.31051       -0.61323        0.00424
C          1.01565       -1.07254        0.00664
H          3.96743        0.06941        0.00709
H          2.65767        1.91418        0.00636
H          0.34907        2.74656        0.00142
H         -2.10150        2.30425       -0.00386
H         -3.97644        0.70536       -0.00433
H         -3.53691       -1.73575        0.00145
H         -1.22092       -2.57984        0.00646
H          1.23341       -2.13736        0.00805
