24

C          0.92157       -0.10501       -0.06898
C          0.60957        1.07432        0.81412
C         -0.00439        0.93727        2.06947
Cl        -0.48852       -0.59859        2.70176
C         -0.24942        2.05362        2.88217
C          0.10612        3.34458        2.46976
C         -0.12196        4.51236        3.32502
C          0.35886        4.59432        4.62898
C          0.11663        5.74984        5.36233
C         -0.59916        6.74835        4.75022
O         -0.87884        7.90286        5.40983
N         -1.06257        6.66909        3.49193
N         -0.81283        5.53716        2.76797
C          0.70175        3.48722        1.21045
C          0.95855        2.37325        0.40238
Cl         1.74253        2.66450       -1.11344
H          0.48994        0.03969       -1.06506
H          0.51954       -1.04942        0.30427
H          2.00639       -0.22741       -0.15744
H         -0.73735        1.91135        3.84583
H          0.93233        3.78357        5.06580
H          0.48044        5.86606        6.37601
H         -1.38619        8.38927        4.73562
H          0.98298        4.48054        0.86084
