27

N         -0.51064       -2.11059       -0.15704
C          0.32272       -0.96795       -0.10165
C          1.71071       -1.05740        0.12604
N          2.38900       -2.35373        0.11236
O          3.37305       -2.49167        0.85258
O          1.95973       -3.22233       -0.66399
C          2.49908        0.08268        0.35701
C          1.90417        1.34293        0.39491
C          0.52568        1.47351        0.19458
O         -0.13620        2.68404        0.27781
C          0.56709        3.83312        0.01469
C          0.68022        4.77316        1.03858
C          1.35996        5.96839        0.80718
C          1.90763        6.22608       -0.45042
C          1.76734        5.29471       -1.48123
C          1.08687        4.09802       -1.25353
C         -0.25680        0.32165       -0.02132
Cl        -1.97911        0.48440       -0.22744
H         -1.42474       -1.92173       -0.56756
H         -0.06528       -2.93469       -0.56906
H          3.57211       -0.00127        0.52399
H          2.52861        2.20879        0.60359
H          0.24243        4.57372        2.01271
H          1.45656        6.70147        1.60397
H          2.43406        7.16034       -0.63073
H          2.18062        5.50731       -2.46396
H          0.96014        3.38425       -2.06212
