40

O          1.28597       -0.08709       -0.51625
C          2.47881       -0.26820       -0.34418
O          3.43708        0.01754       -1.25075
C          3.01797       -1.02884        0.79932
C          2.59884       -2.37111        0.81695
C          3.10188       -3.24325        1.76527
C          4.02370       -2.77473        2.69312
C          4.42899       -1.42824        2.71414
C          5.35382       -1.03939        3.69180
C          5.77532        0.27774        3.80148
C          5.27199        1.23134        2.92981
C          4.36869        0.88365        1.90241
C          3.90453        1.99111        1.03272
C          2.58750        2.44818        1.24836
C          2.05762        3.49270        0.50643
C          2.84920        4.13447       -0.43529
C          4.17570        3.74369       -0.65962
C          4.92682        4.47216       -1.59969
C          6.25357        4.16083       -1.87239
C          6.83738        3.08130       -1.23396
C          6.08951        2.31704       -0.32162
C          6.80633        1.13372        0.17944
O          7.86473        1.13055        0.77260
O          6.20965       -0.00269       -0.24315
C          4.74115        2.64218        0.04464
C          3.91947       -0.48634        1.77297
H          4.35543       -0.13794       -0.93460
H          1.88561       -2.73132        0.07631
H          2.78661       -4.28343        1.77799
H          4.41975       -3.48070        3.42263
H          5.75595       -1.76806        4.39449
H          6.49186        0.56229        4.56776
H          5.60319        2.26391        3.03987
H          1.95369        1.96509        1.99125
H          1.02767        3.80360        0.65949
H          2.41069        4.95394       -1.00254
H          4.47656        5.31030       -2.13064
H          6.81845        4.74768       -2.59184
H          7.86912        2.81733       -1.45907
H          6.80781       -0.69119        0.12721
