20

C          1.95955       -0.83481       -0.67214
O          0.97619       -0.18083       -1.46194
C          1.39783        1.11209       -1.90024
C          0.35975        2.17152       -1.51805
O          0.40033        2.53903       -0.13627
C         -0.26724        1.65170        0.76668
C         -1.76074        1.95302        0.90397
O         -2.52202        1.41035       -0.17173
H          1.51724       -1.74597       -0.26056
H          2.27497       -0.19885        0.16154
H          2.81989       -1.10459       -1.29008
H          2.38369        1.37697       -1.50174
H          1.46784        1.06410       -2.99232
H          0.59568        3.08722       -2.07130
H         -0.64425        1.86089       -1.81045
H         -0.10348        0.60607        0.50545
H          0.19967        1.82302        1.74306
H         -2.13966        1.48743        1.81825
H         -1.95044        3.02950        0.95183
H         -2.47257        2.04452       -0.90332
