34

C          1.10070       -0.01021       -0.31138
C          0.40040       -0.31222        0.98190
C         -0.72090        0.62514        1.34691
C          0.76237       -1.31216        1.81169
C          1.94295       -2.23704        1.67738
O          2.77201       -2.16479        2.85483
C          3.69670       -1.15111        2.76006
C          5.03224       -1.38344        2.42298
O          5.60322       -2.59461        2.15640
C          6.92537       -2.37340        1.93398
C          7.21438       -1.03133        2.01766
C          5.99327       -0.37714        2.33095
C          5.60653        0.95990        2.55362
C          4.28740        1.22508        2.94746
C          3.82725        2.58577        3.18720
C          2.58990        2.79872        3.64478
C          1.66321        1.69787        3.95407
O          0.56123        1.92107        4.43666
O          2.10706        0.42181        3.65816
C          3.38356        0.17217        3.09996
H          0.80440        0.96930       -0.70227
H          0.83939       -0.76058       -1.06438
H          2.18714        0.01301       -0.18549
H         -1.26969        0.29359        2.23452
H         -0.31541        1.62087        1.56027
H         -1.43644        0.71458        0.52419
H          0.20279       -1.45067        2.73694
H          1.56309       -3.26380        1.62473
H          2.52907       -2.07365        0.76553
H          7.52005       -3.25523        1.73855
H          8.18867       -0.58089        1.88962
H          6.33478        1.75966        2.45513
H          4.48973        3.41501        2.96536
H          2.20556        3.79541        3.82119
