23

O          0.73162        0.28925        0.44273
C          1.91059        0.06277        0.22180
O          2.88689        0.85183        0.71389
C          2.41462       -1.05416       -0.65608
C          2.16453       -0.85267       -2.18799
C          1.46898        0.44293       -2.51762
O          2.05846        1.50309       -2.63890
O          0.14121        0.39026       -2.53009
C          1.53417       -2.21533       -2.60713
Cl         0.80876       -2.26395       -4.20382
C          2.68103       -3.21775       -2.39964
Cl         3.62973       -3.87699       -3.63755
C          2.83308       -3.38829       -1.07877
Cl         3.99812       -4.30868       -0.26542
C          1.81760       -2.48234       -0.39352
Cl         1.47814       -2.88041        1.28080
C          0.64213       -2.66790       -1.40525
Cl        -0.84563       -1.76950       -1.05315
Cl         0.05643       -4.40138       -1.55359
H          3.81172        0.65018        0.47158
H          3.50200       -1.10276       -0.49181
H          3.13730       -0.75607       -2.69688
H         -0.18582        1.31588       -2.47337
