23

Cl        -1.85763       -0.57989       -1.20349
C         -0.30595       -0.24858       -0.51740
C          0.53153       -1.35896       -0.33455
C          1.83773       -1.19887        0.12918
C          2.31648        0.07379        0.41824
C          1.48339        1.18175        0.25569
C          0.16279        1.03468       -0.19888
O         -0.47950        2.24180       -0.37817
C         -1.83888        2.33421       -0.20326
C         -2.42731        2.00338        1.01987
C         -3.80758        2.12699        1.17323
C         -4.59609        2.59958        0.11703
Cl        -6.30109        2.70743        0.39612
C         -4.00710        2.97063       -1.10233
Cl        -4.98959        3.57481       -2.40201
C         -2.61715        2.84801       -1.25582
Cl        -1.82607        3.30166       -2.73553
H          0.17690       -2.35799       -0.57893
H          2.48456       -2.06556        0.24407
H          3.34152        0.20835        0.75585
H          1.87338        2.17562        0.46654
H         -1.82182        1.64407        1.84818
H         -4.26839        1.85190        2.12000
