86

C          1.01371       -0.62971       -0.13754
C          0.63939        0.15436        1.11010
C          1.13745        1.59940        1.08122
C          0.51483        2.48088       -0.00646
C         -0.98277        2.76701        0.16591
C         -1.34601        3.61598        1.38674
O         -0.88600        4.96811        1.21916
C          0.31685        5.27871        1.74800
O          0.97671        4.53997        2.46991
C          0.78730        6.66924        1.40240
C          0.05034        7.48142        0.31578
C         -1.48899        7.58507        0.29278
C         -2.26906        7.69767        1.57281
O         -3.49421        7.73348        1.57760
O         -1.48744        7.82702        2.66094
C         -2.12194        8.20750        3.89229
C         -1.73104        9.64592        4.23232
C         -2.09696       10.67115        3.15021
C         -3.59703       10.93708        3.00316
C         -4.24190       11.64361        4.19623
C         -3.69482       13.04401        4.42734
O          0.59036        8.84801        0.16814
C          0.91949        9.65527        1.20239
O          0.93239        9.34894        2.38358
C          1.30056       11.02988        0.72027
C          2.80010       11.26507        0.84873
C          3.58999       10.52241       -0.21807
C          0.38424        6.77420       -1.02352
O          0.14582        5.59177       -1.23671
O          0.92568        7.60627       -1.95634
C          1.18117        7.03456       -3.25276
C          2.67802        6.80807       -3.45989
C          3.33318        5.85265       -2.45580
C          2.90134        4.38605       -2.56683
C          3.35745        3.65577       -3.83098
C          4.86834        3.52708       -3.94139
H          0.49943       -0.24546       -1.02298
H          0.73193       -1.68049       -0.01956
H          2.09273       -0.58641       -0.31778
H         -0.44506        0.12168        1.25720
H          1.08572       -0.34440        1.97891
H          0.96427        2.03967        2.06788
H          2.22577        1.59595        0.94043
H          1.06883        3.42419       -0.04283
H          0.67173        2.02020       -0.98827
H         -1.32211        3.29614       -0.73361
H         -1.53870        1.82461        0.20299
H         -2.43779        3.67617        1.45875
H         -0.99842        3.17521        2.32655
H          0.80479        7.18102        2.36382
H          1.84006        6.57503        1.10016
H         -1.76663        8.46906       -0.29835
H         -1.92492        6.72011       -0.22443
H         -3.20928        8.08338        3.86685
H         -1.74179        7.53418        4.66809
H         -2.16260        9.92680        5.19768
H         -0.64281        9.68019        4.36162
H         -1.57037       11.60824        3.36055
H         -1.71351       10.34138        2.17885
H         -3.75349       11.54716        2.10453
H         -4.12787        9.99608        2.82558
H         -5.31990       11.71821        4.01042
H         -4.12460       11.04738        5.10697
H         -3.78579       13.65369        3.52259
H         -4.25305       13.53867        5.22787
H         -2.64236       13.02202        4.72449
H          0.95151       11.18708       -0.30573
H          0.75369       11.74599        1.34619
H          3.00192       12.33822        0.75420
H          3.15476       10.95736        1.83988
H          3.27661       10.83224       -1.22009
H          4.65791       10.73794       -0.11457
H          3.45411        9.43976       -0.13407
H          0.60581        6.12014       -3.43392
H          0.82745        7.76651       -3.98778
H          2.85374        6.46241       -4.48420
H          3.18164        7.77811       -3.36247
H          4.42067        5.92256       -2.56943
H          3.12464        6.20162       -1.43763
H          3.28951        3.84813       -1.69255
H          1.81238        4.30838       -2.50975
H          2.92733        2.64654       -3.81431
H          2.96099        4.14753       -4.72531
H          5.29193        3.07932       -3.03659
H          5.12982        2.88630       -4.78943
H          5.34233        4.49945       -4.10205
