30

Br         3.31646        0.07655        2.13641
C          1.48943        0.41984        1.79598
C          1.12618        1.54328        1.05938
C         -0.22322        1.78349        0.77818
Br        -0.63736        3.43362       -0.07365
C         -1.21150        0.87531        1.19166
O         -2.54046        1.00603        0.86125
C         -2.78694        0.94524       -0.56104
C         -3.59749       -0.31245       -0.93245
O         -3.25574       -0.96261       -2.17956
C         -1.91316       -1.09994       -2.42058
C         -1.04031       -1.80230       -1.58054
Br        -1.64913       -3.06951       -0.30978
C          0.34175       -1.67801       -1.74052
C          0.84972       -0.95035       -2.81169
Br         2.71812       -0.74391       -2.99815
C         -0.00672       -0.39446       -3.75860
C         -1.38704       -0.47269       -3.56063
Br        -2.51749        0.31106       -4.87056
C         -0.83298       -0.17955        2.03755
Br        -2.12366       -1.27188        2.90588
C          0.51611       -0.42917        2.31324
H          1.88912        2.24019        0.71992
H         -3.38536        1.83078       -0.80532
H         -1.86934        1.02792       -1.14690
H         -3.62437       -1.04593       -0.12379
H         -4.64114        0.00361       -1.05916
H          1.01930       -2.16463       -1.04185
H          0.39620        0.10944       -4.63303
H          0.80421       -1.27172        2.93803
