25

O          0.96386        0.67545       -1.00040
C          2.03512        0.32623       -0.54149
O          2.58666       -0.89194       -0.72089
C          2.88907        1.20701        0.27350
C          4.16521        1.52764       -0.21479
C          4.97319        2.42352        0.48627
C          4.50713        3.00963        1.66294
C          3.23420        2.69719        2.14623
C          2.41971        1.78577        1.45812
C          1.09815        1.47956        2.04507
O          0.42211        2.29243        2.65629
O          0.83875        0.15550        1.93217
C         -0.43807       -0.26645        2.44529
C         -0.34028       -0.60164        3.93356
O         -0.04956        0.53332        4.74657
H          3.39195       -1.05642       -0.19335
H          4.51875        1.11108       -1.15633
H          5.95879        2.68344        0.10491
H          5.13173        3.71939        2.20212
H          2.87943        3.16460        3.06414
H         -1.20074        0.49843        2.25607
H         -0.72481       -1.16186        1.88450
H         -1.28563       -1.02696        4.28313
H          0.45578       -1.33260        4.10545
H         -0.17919        1.34382        4.21136
