15

C          1.01077       -0.13938       -0.10948
C          0.64176        1.26604        0.28578
C         -0.12021        1.55451        1.43210
Cl        -0.70297        0.31948        2.49395
C         -0.44697        2.87497        1.76815
C         -0.02365        3.93227        0.96810
C          0.72728        3.66955       -0.17272
C          1.05552        2.35186       -0.51110
Cl         1.98820        2.11783       -1.95088
H          0.56040       -0.38800       -1.07633
H          0.67574       -0.89698        0.60225
H          2.09936       -0.23853       -0.17930
H         -1.03614        3.08389        2.65863
H         -0.27942        4.95525        1.23215
H          1.05608        4.49566       -0.79921
