16

C          0.93762        0.00328        0.07253
C          0.52957        0.76259       -1.18180
C          0.98508        0.07489       -2.46957
C          0.15845       -1.12560       -2.80715
C          0.75737       -2.27982       -3.56932
O          0.54347       -2.33841       -2.15169
H          0.45166       -0.97487        0.12685
H          0.64917        0.56818        0.96472
H          2.02167       -0.14661        0.10431
H         -0.55786        0.90099       -1.18601
H          0.98113        1.76085       -1.13970
H          0.88732        0.78818       -3.29693
H          2.04905       -0.18216       -2.40187
H         -0.89536       -0.91506       -2.93035
H          0.10630       -2.87600       -4.19575
H          1.78146       -2.21280       -3.91300
