23

O          1.32754        0.25160       -1.03660
C          2.39837        0.12229       -0.45498
O          3.01195       -1.07383       -0.32654
C          3.15178        1.30072        0.15968
O          3.15582        2.36952       -0.79768
C          2.47539        1.78060        1.45090
C          2.82218        0.96873        2.68076
C          2.40645       -0.36470        2.81746
C          2.73100       -1.10280        3.95950
C          3.44694       -0.49852        4.98540
O          3.77152       -1.17701        6.12194
C          3.84467        0.82768        4.88467
C          3.53725        1.55903        3.73460
H          3.88358       -1.03125        0.11367
H          4.19965        1.03569        0.33019
H          2.30809        2.31439       -1.28538
H          2.76017        2.82794        1.62262
H          1.38353        1.80129        1.33949
H          1.80437       -0.84600        2.04958
H          2.40437       -2.13555        4.03392
H          3.39721       -2.07173        6.06895
H          4.38509        1.29506        5.70350
H          3.84868        2.60059        3.68047
