27

C          1.31664        0.44561        0.79896
C          0.39147       -0.46877        1.10457
C         -1.03888       -0.23236        1.08719
C         -1.72946       -0.48737        2.40278
C         -1.75220        0.13680        0.00642
C         -1.27368        0.40599       -1.39704
C         -1.42968       -0.76099       -2.32495
O         -0.95170       -0.51702       -3.66090
C         -0.27196       -1.54558       -2.92862
C          1.15711       -1.22054       -2.62442
C         -0.54443       -2.93156       -3.42620
H          1.05139        1.45139        0.48717
H          2.37364        0.20636        0.86383
H          0.70951       -1.44945        1.45563
H         -2.60421        0.16111        2.52608
H         -2.06020       -1.52965        2.46236
H         -1.06565       -0.28931        3.25197
H         -2.82914        0.25672        0.12743
H         -1.88018        1.23268       -1.78969
H         -0.25160        0.78823       -1.39928
H         -2.39986       -1.23529       -2.23843
H          1.34120       -0.14385       -2.56324
H          1.45579       -1.67875       -1.67713
H          1.81465       -1.60878       -3.40979
H         -0.43340       -3.65206       -2.60968
H         -1.55839       -3.02944       -3.82874
H          0.15602       -3.20428       -4.22240
