15

C          0.36915       -2.36623       -0.00539
C          1.03120       -1.01713       -0.00281
C          2.43380       -0.94293       -0.00559
C          3.08626        0.29165       -0.00503
C          2.34710        1.47113       -0.00177
C          0.95411        1.41662        0.00114
C          0.29867        0.18077        0.00056
Br        -1.60121        0.19696        0.00414
H         -0.25212       -2.49035        0.88728
H         -0.24451       -2.48981       -0.90341
H          1.10780       -3.17520       -0.00210
H          3.03218       -1.85195       -0.00843
H          4.17279        0.33091       -0.00734
H          2.85420        2.43243       -0.00163
H          0.38649        2.34377        0.00364
