47

C         -2.09292        1.80552        0.82685
O         -1.59715        0.56732        1.30194
C         -0.92866        0.57066        2.55317
C          0.74135       -0.01394        2.62045
O          1.64876       -1.75321        1.87926
C          1.21643       -2.04278        0.12531
C          1.42110       -3.35628       -0.99397
C          1.02666       -2.95327       -2.69897
C          0.48363       -1.30550       -3.26612
C          0.27058        0.10261       -2.16308
C          0.56767       -0.17222       -0.43582
S          1.80584        1.43734        0.80723
O          2.85765        1.88476       -0.09191
O          0.84431        2.35799        1.38048
N          2.84548        0.19400        2.47272
C          2.04965       -1.18469        3.55851
O          2.65093       -1.65017        4.52546
N          0.35911       -1.84365        3.09316
C          0.04006       -1.22290        1.33021
N          1.78662       -0.51494        0.80851
C          2.52083       -0.74106       -0.67042
O          3.87347       -0.74238       -0.80402
C          4.22108       -0.11158       -2.02862
N          1.50248       -1.37727       -1.58133
C         -0.30143       -1.86621       -1.08421
O         -1.26183       -2.31969       -2.02736
C         -2.35073       -3.01726       -1.43997
N         -0.92014       -1.85784        0.40060
H         -2.20534        2.56015        1.60762
H         -3.06969        1.62040        0.36927
H         -1.43034        2.16965        0.03712
H         -0.90138        1.57824        2.99023
H         -1.52349       -0.04087        3.24490
H          1.29499        0.89956        2.90800
H          0.56659       -0.11662        3.75997
H          1.81524       -4.32211       -0.71267
H          1.16930       -3.72058       -3.45910
H          0.35821       -1.14996       -4.33656
H          0.16142        1.10443       -2.56268
H          3.27161       -0.42503        1.76467
H          0.26985       -2.85106        3.10929
H          3.40463        0.45233       -2.49669
H          5.03053        0.59530       -1.81800
H          4.59411       -0.86302       -2.72936
H         -2.00533       -3.85078       -0.81856
H         -3.00161       -2.34089       -0.87621
H         -2.94831       -3.44215       -2.25273
