43

C          1.07852       -0.14187        0.16540
C          0.61567        1.15456        0.80244
O          1.22985        2.25891        0.12258
C          2.33608        2.78661        0.71863
O          2.73534        2.49067        1.84036
C          3.01788        3.84906       -0.14468
N          2.51800        3.99266       -1.51706
C          1.53030        5.02475       -1.78204
C          2.86311        2.98803       -2.41339
O          3.67642        2.11143       -2.11166
C          2.24679        3.02725       -3.81576
O          0.81896        3.01307       -3.88573
C          0.27698        1.78529       -3.71536
O          0.87308        0.74889       -3.48158
C         -1.18728        1.84707       -3.79869
C         -1.89060        1.32183       -2.70005
C         -3.28883        1.30935       -2.68305
C         -4.00103        1.80979       -3.76981
C         -3.31499        2.32524       -4.86820
C         -1.91204        2.33637       -4.88278
O         -1.38098        2.92896       -6.08920
C         -0.35970        3.02426       -7.05109
C          0.77473        2.07132       -6.89360
O         -0.41951        3.84834       -7.95753
H          0.79676       -0.17124       -0.89149
H          0.63291       -1.00470        0.66811
H          2.16884       -0.23094        0.20558
H         -0.46738        1.26156        0.68549
H          0.82432        1.15580        1.87781
H          2.92289        4.81232        0.36720
H          4.08180        3.59024       -0.19508
H          1.55301        5.32229       -2.83298
H          0.53779        4.64255       -1.53232
H          1.75163        5.91102       -1.18035
H          2.59767        3.93623       -4.31580
H          2.66347        2.19138       -4.39308
H         -1.34804        0.91881       -1.84679
H         -3.82109        0.90518       -1.82450
H         -5.08881        1.79634       -3.76417
H         -3.87275        2.71233       -5.71837
H          1.08456        1.72455       -7.88387
H          1.61256        2.59549       -6.43293
H          0.49237        1.19179       -6.31689
