21

C          0.89014       -0.29570        0.12992
O          0.38005        0.30950        1.31596
C          0.88596       -0.19059        2.46912
O          1.66034       -1.14156        2.53556
N          0.56993        0.51374        3.59626
C         -0.33563        1.56307        3.72212
N         -1.30645        1.79116        2.81799
C         -2.16042        2.81312        3.02362
N         -2.17110        3.68219        4.03955
C         -1.18939        3.45213        4.92694
N         -0.93574        4.20736        6.03995
C          0.11873        3.65469        6.59459
N          0.53999        2.55597        5.89657
C         -0.28222        2.41313        4.81162
H          0.53462        0.28596       -0.72520
H          0.52068       -1.32060        0.03674
H          1.98514       -0.27437        0.12256
H          1.10960        0.23020        4.39613
H         -2.93347        2.94461        2.27246
H          0.62029        4.00416        7.48803
H          1.34339        1.98863        6.12556
