18

Cl         0.94848        0.02592        0.20598
C          2.72856       -0.03935        0.00257
C          3.16857       -1.45430       -0.38202
C          2.78290       -1.83253       -1.81225
C          3.27262       -0.79617       -2.81958
C          2.79924        0.61043       -2.46448
C          3.18366        0.99076       -1.03445
H          3.14887        0.21891        0.98015
H          4.26057       -1.51786       -0.28828
H          2.75552       -2.18999        0.31848
H          1.69445       -1.93631       -1.89289
H          3.21003       -2.81151       -2.05832
H          2.92015       -1.06161       -3.82265
H          4.36908       -0.81244       -2.85295
H          1.71202        0.67395       -2.59062
H          3.23841        1.33106       -3.16393
H          2.78053        1.98216       -0.79525
H          4.27650        1.08067       -0.98073
