66

C          0.53589        0.85102       -1.18568
N         -0.22428        1.91059       -0.53874
C         -1.62214        1.54201       -0.35515
C          0.41445        2.48310        0.65007
C          0.27617        1.79091        2.01223
C          0.76425        0.34743        2.13052
N          2.18397        0.00334        2.14305
C          2.45938       -1.21657        1.40852
N          3.79527       -1.70844        1.65096
C          3.99278       -2.54210        2.84550
C          3.89803       -1.98837        4.28718
C          2.49962       -1.73614        4.85565
N          1.78727       -2.83303        5.53681
C          0.36108       -2.48840        5.60790
C          1.94846       -4.14219        4.92070
C          4.76898       -0.65714        1.44781
N          4.47595        0.43261        2.35795
C          5.58962        1.37359        2.48492
C          6.46544        1.07010        3.72489
C          7.13253       -0.31629        3.82908
N          8.41379       -0.58707        3.15701
C          8.54410       -2.02617        2.89439
C          8.67611        0.17242        1.94665
C          3.19744        1.02451        1.97557
H          0.20213        0.73475       -2.22274
H          0.41798       -0.11984       -0.69884
H          1.60381        1.09071       -1.22865
H         -1.74780        0.69148        0.32356
H         -2.19946        2.38614        0.03682
H         -2.07562        1.27134       -1.31567
H          1.46960        2.68291        0.43820
H         -0.02046        3.48460        0.77564
H          0.77065        2.40620        2.77433
H         -0.78537        1.80222        2.29568
H          0.37341       -0.01200        3.09216
H          0.21970       -0.25986        1.39915
H          1.73364       -2.00304        1.65892
H          2.34121       -1.04111        0.33122
H          3.33596       -3.41133        2.74689
H          4.99969       -2.97196        2.75104
H          4.44396       -2.66480        4.95770
H          4.44505       -1.04754        4.36254
H          2.60249       -0.93438        5.60048
H          1.86407       -1.33781        4.07446
H         -0.09274       -2.43258        4.60960
H         -0.19203       -3.22937        6.19318
H          0.21819       -1.51909        6.09928
H          1.58538       -4.16500        3.88828
H          2.99508       -4.46240        4.94248
H          1.39680       -4.89904        5.48926
H          4.74748       -0.31604        0.40172
H          5.77290       -1.06757        1.57127
H          6.18895        1.42751        1.57040
H          5.20028        2.38912        2.63732
H          7.22504        1.85339        3.83377
H          5.81799        1.17822        4.60740
H          7.32018       -0.49174        4.89744
H          6.40884       -1.08282        3.55717
H          7.83638       -2.36580        2.12757
H          9.55629       -2.27072        2.55532
H          8.36436       -2.61157        3.80368
H          7.94500       -0.02657        1.15783
H          8.70008        1.24651        2.15380
H          9.66908       -0.07563        1.55346
H          3.22651        1.42092        0.95423
H          2.98453        1.85423        2.65726
