27

C          0.91088       -0.01795        0.09579
O          0.36207       -1.28457       -0.27441
C          1.14659       -2.03724       -1.10318
O          2.24513       -1.67095       -1.50551
C          0.51949       -3.43020       -1.35061
C          0.98123       -4.26723       -0.13578
C         -1.02153       -3.34328       -1.35582
C          0.93643       -4.08790       -2.68693
C          1.35554       -3.32984       -3.79557
C          1.70897       -3.94090       -5.00488
C          1.61999       -5.32166       -5.13709
Br         2.09287       -6.14703       -6.76964
C          1.17396       -6.09619       -4.07365
C          0.83255       -5.48347       -2.86345
H          0.35662        0.34690        0.96526
H          0.78185        0.69267       -0.72525
H          1.96559       -0.09984        0.37714
H          0.77440       -3.74820        0.80815
H          0.47676       -5.23685       -0.07666
H          2.06217       -4.45018       -0.17307
H         -1.37537       -2.66546       -2.14194
H         -1.48320       -4.32246       -1.53002
H         -1.41509       -2.97363       -0.40202
H          1.42779       -2.24530       -3.74474
H          2.05118       -3.32580       -5.83310
H          1.08321       -7.17469       -4.17199
H          0.46780       -6.12355       -2.06373
