37

C          1.02529       -0.14953       -0.00148
C          0.50914       -0.92018       -1.22629
C          1.13144       -2.32647       -1.22305
C         -0.99602       -1.10845       -1.09505
O         -1.70530       -1.59861       -1.97146
C          0.85851       -0.20550       -2.55692
C          0.46902        1.24783       -2.64111
C          1.31809        2.28222       -2.46262
C          0.83552        3.71510       -2.56862
C         -0.67258        3.72076       -2.89608
C         -1.43646        2.73610       -1.94842
C         -0.95726        1.62988       -2.95892
C         -1.10786        2.75350       -4.07973
C         -0.19125        2.68906       -5.30793
C         -2.54899        2.95419       -4.59211
H          0.84101       -0.70954        0.92319
H          0.52112        0.81594        0.11513
H          2.10322        0.03208       -0.07226
H          0.84898       -2.88332       -0.32161
H          0.79237       -2.91381       -2.08424
H          2.22525       -2.27698       -1.25899
H         -1.43873       -0.83119       -0.12288
H          1.94310       -0.28209       -2.71877
H          0.40228       -0.73517       -3.40395
H          2.36841        2.11770       -2.24042
H          1.01554        4.23021       -1.61878
H          1.39646        4.24134       -3.34803
H         -1.08445        4.73398       -2.94092
H         -2.51919        2.88032       -1.88088
H         -1.06690        2.66233       -0.91935
H         -1.62868        0.77648       -3.07662
H         -0.47842        1.85565       -5.95881
H         -0.26877        3.61348       -5.89167
H          0.86498        2.55422       -5.06656
H         -3.30024        2.96076       -3.79876
H         -2.63551        3.90585       -5.12805
H         -2.82513        2.14978       -5.28326
