17

O          1.20216        0.21689        0.33092
C          2.41248        0.09852        0.22483
O          3.26393        0.95116        0.83744
C          3.10608       -0.96488       -0.59913
C          2.63549       -2.38780       -0.28860
C          1.16952       -2.71411       -0.57386
C          0.80790       -2.73605       -2.03248
O          0.41908       -3.70887       -2.65811
O          0.90269       -1.53643       -2.62958
H          4.20870        0.77870        0.67170
H          2.99844       -0.71001       -1.65672
H          4.18263       -0.93137       -0.39163
H          3.26679       -3.08392       -0.85572
H          2.82445       -2.58897        0.77373
H          0.97113       -3.72392       -0.19080
H          0.47485       -2.05801       -0.04393
H          0.55350       -1.68752       -3.53258
