31

C          1.23345       -0.08613        0.22207
N          0.49561       -0.25630        1.45333
C         -0.24329        0.67191        2.15615
O         -0.64288        0.38850        3.28288
C         -0.58190        1.98773        1.53572
C         -1.13281        2.02700        0.26324
C         -1.46609        3.26834       -0.27386
O         -2.00706        3.47496       -1.52911
C         -2.17182        2.37410       -2.33241
C         -3.24686        1.50989       -2.13112
C         -3.34298        0.34595       -2.89527
C         -2.42178        0.08203       -3.91435
N         -2.42880       -1.15960       -4.56019
C         -1.35582        0.96774       -4.10855
C         -1.24060        2.12678       -3.33746
C         -1.25304        4.41572        0.48547
C         -0.71364        4.27643        1.75352
N         -0.37058        3.09064        2.29635
H          1.36537        0.96619       -0.03440
H          0.69582       -0.60642       -0.57490
H          2.21556       -0.54789        0.35052
H          0.63040       -1.11699        1.97116
H         -1.29789        1.09930       -0.26965
H         -3.97182        1.70939       -1.34711
H         -4.13960       -0.36119       -2.67963
H         -1.97031       -1.15611       -5.46591
H         -3.34252       -1.60121       -4.59431
H         -0.59701        0.75353       -4.85665
H         -0.41104        2.80907       -3.49780
H         -1.50545        5.39731        0.09962
H         -0.53869        5.14217        2.38659
