47

C          2.71910       -0.41596       -0.11462
C          1.23797       -0.16338       -0.17963
C          0.36670       -1.25469        0.05190
C         -1.03373       -1.17405       -0.07570
N         -1.86314       -2.28013        0.14810
C         -1.32717       -3.64857       -0.08860
C         -1.40032       -4.50846        1.18088
O         -2.69925       -5.07980        1.34113
C         -3.34015       -2.17789        0.01851
C         -4.01246       -1.81630        1.35194
O         -3.70825       -0.49520        1.78158
C         -1.52639        0.10103       -0.39474
C         -0.68477        1.20792       -0.59700
C          0.70125        1.09239       -0.49131
N          1.50083        2.23613       -0.70445
N          1.90229        2.66275        0.40000
C          2.69699        3.81815        0.28316
C          3.80832        3.85801       -0.58045
C          4.63259        4.98995       -0.65771
C          4.35638        6.10606        0.14196
N          5.22891        7.28724        0.08107
O          6.20087        7.24281       -0.68861
O          4.94473        8.24744        0.80479
C          3.26286        6.09897        1.01374
C          2.45572        4.94965        1.07704
N          1.33459        4.96264        2.00533
O          0.65708        5.99852        2.04242
O          1.16868        3.97565        2.73294
H          2.97560       -0.92850        0.81810
H          3.02030       -1.04193       -0.96123
H          3.31391        0.49965       -0.15516
H          0.83529       -2.18596        0.35882
H         -1.89725       -4.12606       -0.89559
H         -0.29343       -3.64125       -0.44354
H         -0.70013       -5.34524        1.09531
H         -1.14125       -3.93965        2.08074
H         -3.15477       -4.56259        2.02554
H         -3.62796       -1.47994       -0.77383
H         -3.75185       -3.14576       -0.29383
H         -5.09943       -1.88468        1.24290
H         -3.71248       -2.50126        2.14957
H         -2.73579       -0.46418        1.86256
H         -2.59183        0.29123       -0.48920
H         -1.12792        2.17325       -0.83051
H          4.04159        2.99094       -1.19772
H          5.48388        4.97910       -1.33811
H          3.04014        6.95943        1.64336
