40

C          1.34569        0.21431        0.23788
C          0.61336        0.73510       -1.00355
C         -0.87763        0.96268       -0.71121
C         -1.70455       -0.32332       -0.75931
C         -1.55204       -1.06630       -2.10990
C         -2.20876       -0.27999       -3.30212
C         -2.15534       -1.02944       -4.64040
C         -3.68246        0.05762       -3.01958
C         -0.04444       -1.42006       -2.28210
C          0.83362       -0.15951       -2.23920
O          0.18423       -2.11201       -3.51819
C          0.87674       -3.31269       -3.18703
C          0.43062       -3.59742       -1.78127
C          1.40081       -4.46684       -0.99742
O          0.94020       -4.61259        0.34500
O          0.36230       -2.28872       -1.20116
H          0.91941       -0.71586        0.62147
H          1.29222        0.95227        1.04621
H          2.40488        0.04095        0.02125
H          1.06030        1.71324       -1.22757
H         -1.00204        1.43808        0.26937
H         -1.27684        1.67672       -1.44134
H         -1.39379       -0.98366        0.05987
H         -2.75351       -0.09542       -0.54743
H         -2.10600       -2.01114       -2.01482
H         -1.68306        0.67075       -3.44744
H         -2.46073       -2.07452       -4.52602
H         -2.81658       -0.56658       -5.38174
H         -1.15364       -0.99602       -5.07689
H         -3.78302        0.77892       -2.20390
H         -4.15603        0.51715       -3.89443
H         -4.25139       -0.84220       -2.76261
H          0.64703        0.43418       -3.14356
H          1.89205       -0.44587       -2.29705
H          1.95106       -3.11031       -3.25472
H          0.61775       -4.10859       -3.89041
H         -0.58277       -4.01523       -1.74920
H          1.48706       -5.46292       -1.44136
H          2.39588       -4.01226       -0.95161
H          0.73571       -3.70726        0.65203
