51

C          1.49270       -1.64617       -0.78159
C          0.93452       -1.53025        0.43192
C         -0.25584       -0.68873        0.54236
O         -0.06613        0.51260        0.60669
O         -1.43960       -1.36128        0.56444
C         -2.63882       -0.60114        0.23606
C         -3.86941       -0.81558        1.15161
C         -3.90616       -0.29378        2.61168
O         -4.25530        1.03495        3.03973
C         -4.05463        2.22475        2.28003
C         -2.58997        2.75485        2.03693
C         -1.63696        1.66631        2.53268
C         -2.70953        3.17341        0.57157
C         -2.00311        3.99442        2.81562
O         -1.90939        5.25760        2.16125
C         -0.99234        5.57447        1.09810
C          0.41439        4.95945        0.87802
C          0.61154        3.61668        0.13143
O          0.35603        3.62412       -1.30397
C         -0.37147        2.59717       -1.81464
O         -1.12940        1.83413       -1.22507
C         -0.22665        2.38270       -3.25131
C          0.58168        1.38621       -3.64257
H          0.98284       -1.29881       -1.67630
H          2.50386       -2.02251       -0.89413
H          1.48847       -1.72403        1.34021
H         -2.44069        0.45554        0.11747
H         -2.92267       -0.96130       -0.76165
H         -4.75593       -0.44419        0.62500
H         -3.97562       -1.90801        1.22945
H         -4.70343       -0.88997        3.07918
H         -3.00878       -0.60470        3.15318
H         -4.58434        2.04470        1.33396
H         -4.62700        3.02411        2.76515
H         -1.79639        0.72172        2.05470
H         -0.57956        1.91321        2.43020
H         -1.79505        1.48733        3.60615
H         -3.39428        4.02879        0.47824
H         -1.77921        3.49969        0.15572
H         -3.11517        2.40455       -0.08640
H         -2.60270        4.13798        3.72223
H         -0.98798        3.79633        3.18737
H         -1.55071        5.60210        0.15867
H         -0.78235        6.63487        1.30049
H          0.96552        5.69875        0.27763
H          0.92267        4.89024        1.84649
H          1.67700        3.36456        0.21448
H          0.08539        2.82242        0.64483
H         -0.99928        2.78251       -3.89366
H          0.53932        1.00036       -4.65529
H          1.24613        0.88745       -2.94194
