16

N          0.97587       -0.13041        0.10467
C          0.49210        1.22489        0.33536
C          0.90640        2.24421       -0.69942
C          1.54189        1.92828       -1.90482
C          1.86028        2.95288       -2.78606
N          1.58929        4.25459       -2.55941
C          0.97008        4.54559       -1.39809
C          0.61407        3.59309       -0.45496
H          0.60107       -0.48037       -0.77397
H          1.99038       -0.11753        0.02226
H         -0.60237        1.19881        0.38504
H          0.85969        1.54871        1.31601
H          1.79549        0.91020       -2.17585
H          2.35701        2.74288       -3.72922
H          0.75739        5.59864       -1.23748
H          0.11380        3.90275        0.45752
