34

C          0.92747        0.10187        0.14605
C          0.41526       -1.31145        0.13367
C         -0.44767       -1.73508        1.29059
C          0.69521       -2.18929       -0.85171
C          1.52819       -1.91877       -2.07835
C          2.86322       -2.69481       -2.09449
C          2.62392       -4.20398       -2.25911
C          3.79377       -2.21242       -3.23421
C          4.27343       -0.74349       -3.14927
C          5.02156       -0.45639       -1.84571
C          5.17716       -0.38679       -4.34088
O          4.45899       -0.45430       -5.56594
H          0.61083        0.64329        1.04311
H          0.54535        0.65758       -0.71681
H          2.02196        0.11793        0.12863
H         -1.39200       -2.16024        0.93429
H          0.07145       -2.48268        1.89927
H         -0.69922       -0.89315        1.94323
H          0.27459       -3.19162       -0.78453
H          0.93421       -2.18392       -2.96222
H          1.71680       -0.84590       -2.15994
H          3.37478       -2.55491       -1.13480
H          2.07447       -4.41968       -3.18195
H          3.57496       -4.74626       -2.29900
H          2.05413       -4.61405       -1.41980
H          4.68058       -2.86031       -3.26074
H          3.27247       -2.36840       -4.18700
H          3.39891       -0.08571       -3.20343
H          5.88099       -1.12486       -1.72687
H          5.39158        0.57458       -1.82919
H          4.37131       -0.57505       -0.97434
H          5.54504        0.64002       -4.24237
H          6.04778       -1.04855       -4.40430
H          4.34593       -1.39259       -5.79198
