28

C          1.04817       -0.23007        0.87430
C          0.97434        0.00316       -0.62017
O          1.90372       -0.85129       -1.24498
P          2.39929       -0.60030       -2.76046
O          1.71264       -1.50315       -3.74204
N          2.42538        0.95810       -3.07801
C          1.43516        1.66678       -3.47912
S          1.65595        3.39233       -3.66298
C         -0.05379        3.78724       -3.21716
C         -0.93386        2.79168       -3.94660
S         -0.20233        1.14217       -3.75703
O          3.94343       -1.03766       -2.55534
C          4.78076       -1.14597       -3.68704
C          4.89846       -2.60201       -4.08947
H          0.77906       -1.26254        1.11773
H          0.37758        0.44854        1.40824
H          2.07077       -0.07248        1.23408
H         -0.03163       -0.21449       -0.98913
H          1.21814        1.04979       -0.81800
H         -0.29783        4.81621       -3.49537
H         -0.16932        3.69373       -2.13091
H         -1.00506        3.03307       -5.01244
H         -1.94755        2.79382       -3.53360
H          4.40843       -0.53476       -4.51485
H          5.76629       -0.76302       -3.40352
H          3.93214       -2.99197       -4.42346
H          5.62308       -2.72487       -4.89894
H          5.21064       -3.21596       -3.23780
