32

C          2.40817       -0.05232        0.03487
C          0.91055        0.02361       -0.00395
C          0.15041       -1.14975       -0.03963
C         -1.24640       -1.08637       -0.09323
C         -1.91685        0.14232       -0.10958
N         -3.32662        0.11681       -0.20446
N         -3.86008        1.20202        0.10949
C         -5.26529        1.12437       -0.00959
C         -6.00692        0.26233        0.81535
C         -7.40508        0.22157        0.74748
C         -8.19350       -0.69866        1.63036
C         -8.06362        1.08019       -0.13734
C         -7.33766        1.94954       -0.95602
C         -5.93790        1.94921       -0.93673
N         -5.24169        2.92484       -1.68422
C         -1.14532        1.31348       -0.06943
C          0.25226        1.25645       -0.01547
H          2.73661       -0.60301        0.92199
H          2.78237       -0.55667       -0.86194
H          2.85999        0.94446        0.07202
H          0.63940       -2.12130       -0.03163
H         -1.82109       -2.00897       -0.12705
H         -5.47464       -0.37067        1.52115
H         -8.81747       -0.11857        2.31763
H         -8.83279       -1.34783        1.02330
H         -7.53840       -1.34084        2.22812
H         -9.15084        1.09119       -0.18338
H         -7.87445        2.63353       -1.60762
H         -5.69736        3.16437       -2.55806
H         -4.26578        2.66019       -1.81017
H         -1.62742        2.28749       -0.08410
H          0.81742        2.18533        0.01246
