61

O          3.81420        1.84481        0.33581
C          4.36382        0.75176        0.46052
C          3.87174       -0.38467       -0.36371
C          3.72932       -1.67695        0.15265
C          3.68434       -2.76375       -0.72566
C          3.77015       -2.56598       -2.10647
O          3.87773       -3.71085       -2.84657
C          4.28517       -3.60284       -4.21881
C          3.07833       -3.77697       -5.15722
N          2.12980       -2.67317       -4.98711
C          2.22965       -1.63525       -6.01033
C          1.41952       -0.40685       -5.58641
C         -0.02549       -0.76544       -5.25018
C         -0.09354       -1.94882       -4.28980
C          0.75465       -3.12052       -4.78149
C          3.75793       -1.26283       -2.60447
C          3.78611       -0.16896       -1.73994
C          5.54053        0.54435        1.32057
C          6.40885       -0.54972        1.28427
C          6.96331       -1.29855        0.14469
C          7.51995       -2.57621        0.26528
C          8.13279       -3.18640       -0.83423
C          8.17286       -2.53424       -2.06130
O          8.76865       -3.16930       -3.10900
C          7.63450       -1.26609       -2.20824
C          7.05756       -0.64695       -1.10179
S          7.06968       -0.70990        2.86359
C          7.21834        1.00503        2.89988
C          8.13195        1.75665        3.64667
C          8.27160        3.09316        3.30235
O          9.33356        3.76134        3.83882
C          7.41647        3.71138        2.40106
C          6.38776        2.97828        1.79477
C          6.32013        1.57595        1.98753
H          3.75076       -1.85922        1.22370
H          3.65946       -3.77660       -0.33061
H          4.86581       -2.69893       -4.43715
H          4.97548       -4.43658       -4.39641
H          3.41726       -3.85984       -6.19690
H          2.60700       -4.73560       -4.90558
H          1.87736       -2.00575       -6.98075
H          3.27438       -1.32663       -6.13896
H          1.43981        0.34467       -6.38329
H          1.88610        0.05626       -4.70778
H         -0.53067        0.10047       -4.80792
H         -0.56065       -1.01636       -6.17320
H          0.26131       -1.63471       -3.29899
H         -1.13374       -2.26967       -4.16683
H          0.71688       -3.90441       -4.01506
H          0.33652       -3.54134       -5.70428
H          3.76897       -1.05911       -3.66691
H          3.84578        0.83770       -2.14713
H          7.51079       -3.10425        1.21514
H          8.58858       -4.16619       -0.72742
H          8.70665       -2.59465       -3.88944
H          7.66502       -0.73578       -3.15392
H          6.68989        0.36999       -1.22481
H          8.81050        1.28213        4.34703
H          9.62678        4.41823        3.18505
H          7.54368        4.75799        2.14128
H          5.73686        3.46186        1.06886
