71

C          0.29412       -0.86920        0.40361
N          0.89468       -2.15052        0.10434
C          1.41251       -3.06277        1.15960
C          1.88013       -2.02149       -0.94987
C          3.18397       -1.72291       -0.22542
O          4.15716       -2.47959       -0.30740
C          3.21294       -0.42317        0.52461
C          2.48559       -0.17871        2.05668
O          3.12817        0.61512        2.78362
N          1.39817       -0.74530        2.82464
C         -0.28257       -0.87682        2.92583
N         -0.91163       -2.19462        2.60561
C         -1.63305       -2.91642        3.64895
C         -1.63278       -4.32690        3.04433
C         -1.79280       -4.10385        1.55091
C         -1.72387       -2.58451        1.41611
C          3.18599        0.60234       -0.70237
O          4.11226        1.39120       -0.90605
C          1.98205        0.54468       -1.63705
O          1.48247        1.40105       -0.49053
C          1.14575        1.42424       -2.55771
O          1.60176        1.96404       -3.55917
C         -0.39074        1.41341       -2.20646
C         -1.30533        2.52038       -2.62749
O         -0.94185        3.60373       -3.06754
C         -2.70734        2.36336       -2.14700
C         -3.38634        3.46270       -1.60108
O         -2.85071        4.72076       -1.56056
C         -4.64263        3.30277       -1.02384
C         -5.23594        2.04291       -1.00035
C         -4.56733        0.94130       -1.54663
C         -3.28141        1.07714       -2.11094
C         -2.50062       -0.11744       -2.66835
C         -2.70582       -0.26892       -4.15999
O         -2.99611       -1.33545       -2.07357
C         -1.01622        0.00498       -2.23296
C          0.03670       -1.08490       -2.64131
C          1.54419       -0.93083       -2.02603
H         -0.76175       -0.78310        0.61597
H          0.27693       -0.32123       -0.47985
H          0.76652       -0.07996        0.94931
H          0.85671       -3.16746        2.07606
H          1.45763       -4.07702        0.75677
H          2.41097       -2.83209        1.54907
H          1.96613       -2.99657       -1.44622
H          4.27197       -0.37145        0.83958
H          1.59027       -0.29321        3.71537
H         -0.44609       -0.70976        3.99794
H         -0.76373       -0.00606        2.45884
H         -2.66831       -2.55116        3.73181
H         -1.16259       -2.89408        4.62932
H         -0.66374       -4.80870        3.22901
H         -2.41804       -4.97787        3.43234
H         -0.96770       -4.58749        1.00537
H         -2.72100       -4.50916        1.13721
H         -1.37701       -2.45721        0.39109
H         -2.72516       -2.13725        1.43491
H          1.93020        2.28481       -0.59998
H         -0.41116        1.67963       -1.13726
H         -2.04992        4.73382       -2.13044
H         -5.15853        4.15907       -0.59461
H         -6.22360        1.92100       -0.55799
H         -5.06888       -0.02567       -1.51873
H         -2.25623        0.55379       -4.71904
H         -2.28868       -1.21854       -4.51095
H         -3.77778       -0.30148       -4.39161
H         -3.15666       -1.18014       -1.12554
H         -1.24475       -0.19589       -1.19128
H         -0.35205       -2.08185       -2.39160
H          0.12768       -1.06533       -3.73359
H          2.19272       -1.20887       -2.87315
