19

C          1.06595        0.16207        0.14380
C          0.45786        0.10353       -1.24836
C          0.80767       -1.17616       -2.01900
C          0.50252       -2.49804       -1.32093
O          0.28068       -1.14308       -3.37255
C         -1.00446       -1.19304       -3.79091
N         -1.97656       -1.26415       -2.84954
O         -1.29951       -1.17096       -4.97936
H          0.63334       -0.60131        0.79767
H          0.86816        1.13792        0.59892
H          2.15010        0.01774        0.10842
H         -0.62308        0.24216       -1.16367
H          0.81142        0.96418       -1.83070
H          1.89536       -1.16190       -2.16779
H         -0.54022       -2.57888       -1.00668
H          0.70077       -3.33838       -1.99508
H          1.12508       -2.62438       -0.42957
H         -2.92774       -1.27481       -3.18987
H         -1.82353       -1.24868       -1.85882
