88

C          0.65496       -0.76054       -1.05277
O          1.05781        0.59807       -1.25710
C          1.25502        1.18484       -0.03488
C          0.15664        1.79450        0.55202
C          0.28493        2.29050        1.83077
C          1.50257        2.16586        2.52557
C          1.59921        2.58467        3.85287
O          0.46085        3.15731        4.36117
C          0.03461        2.72697        5.63321
C         -0.02481        1.21324        5.87308
C         -0.68686        1.18160        7.25948
C          0.28253        1.60179        8.41235
O         -0.05610        1.67151        9.58650
N          1.57143        1.86355        7.98487
C          2.70746        2.21484        8.81414
C          3.51175        1.00054        9.24507
O          4.36497        0.98407       10.10701
O          3.29559       -0.06805        8.43119
C          3.59474        3.30657        8.19043
C          2.93868        3.54801        9.50876
C          1.98240        4.66446        9.64513
C          1.67728        5.64306        8.77015
C          0.96929        6.91857        9.15318
C         -0.46936        7.08584        8.65624
C         -1.43198        6.07579        9.28509
C         -1.55631        4.82704        8.41508
N         -2.21157        3.66694        8.99234
C         -2.32940        3.57402       10.44139
C         -2.62274        2.56982        8.26432
O         -3.51053        1.82053        8.69199
C         -1.89482        2.12867        6.99424
C         -1.44098        3.07820        5.86465
C          2.79988        2.45152        4.54259
C          3.88427        1.89044        3.87821
C          5.19973        1.71865        4.52635
N          6.27165        2.46656        4.33006
C          7.34956        2.00756        5.08595
C          8.67874        2.71617        4.95929
C          9.08221        3.42165        6.25660
C          9.80150        1.77744        4.50623
C          7.05354        0.92186        5.88990
S          5.42087        0.44498        5.66831
N          3.80694        1.46480        2.59260
C          2.64041        1.59709        1.91815
C          2.51141        1.15097        0.59726
C          3.71337        0.59986       -0.11877
H          0.13163       -1.09645       -1.95135
H         -0.02964       -0.88052       -0.20250
H          1.53833       -1.38940       -0.90496
H         -0.79529        1.85497        0.03447
H         -0.58372        2.74831        2.30008
H          0.62830        3.27581        6.36809
H         -0.66649        0.73105        5.12080
H          0.92865        0.68929        5.79771
H         -1.03437        0.16813        7.49460
H          1.88571        1.20482        7.28028
H          3.92576       -0.74204        8.76310
H          3.23354        3.84690        7.32727
H          4.66938        3.16136        8.17374
H          3.60335        3.50726       10.37149
H          1.59049        4.76958       10.65778
H          2.05018        5.61348        7.75070
H          0.98750        7.04693       10.24269
H          1.56412        7.74882        8.75042
H         -0.79971        8.09336        8.94051
H         -0.51108        7.04492        7.56067
H         -1.10422        5.84716       10.30318
H         -2.42661        6.53191        9.37384
H         -2.16148        5.12294        7.55273
H         -0.58155        4.49657        8.05701
H         -1.33208        3.68858       10.87874
H         -2.99405        4.36030       10.80558
H         -2.71559        2.60230       10.76177
H         -2.65983        1.50551        6.49688
H         -2.00852        2.85043        4.94977
H         -1.58349        4.14465        5.99978
H          2.90579        2.79394        5.55735
H          8.56964        3.48824        4.18617
H          9.25903        2.70651        7.06814
H         10.00472        3.99624        6.11353
H          8.30254        4.11607        6.58685
H          9.53424        1.25768        3.58009
H         10.72362        2.34047        4.32005
H         10.02593        1.01769        5.26374
H          7.70902        0.39402        6.56953
H          4.58767        1.23712        0.05392
H          3.92829       -0.41509        0.22639
H          3.56033        0.57792       -1.20240
