18

O          0.93369       -0.05184       -0.11722
C          2.14565       -0.08871       -0.00621
O          2.86697        0.82716        0.67280
C          2.98464       -1.11826       -0.66060
C          4.06893       -1.70137        0.00507
C          4.83355       -2.67372       -0.63915
C          4.51072       -3.06950       -1.93926
C          3.41218       -2.50653       -2.61079
C          3.07118       -2.96107       -4.01000
F          4.09929       -2.76105       -4.88054
F          2.78429       -4.29027       -4.06891
F          1.99774       -2.31952       -4.54675
C          2.64694       -1.52919       -1.95590
H          3.83075        0.77576        0.53164
H          4.30689       -1.43143        1.03142
H          5.67417       -3.13591       -0.12527
H          5.11380       -3.83425       -2.42928
H          1.78264       -1.08487       -2.45128
