26

C          1.21538       -0.60178        0.10696
C          0.67036        0.53006       -0.75175
C          0.93292        0.36152       -2.26173
C          0.40888       -0.96901       -2.84317
C         -1.09945       -1.16462       -2.75834
C          0.37944        1.55892       -3.05640
O          1.05518        2.77907       -2.68889
C          0.45611        3.84872       -2.11508
C         -0.84301        3.63268       -1.39511
O          1.00204        4.94712       -2.11960
H          0.67310       -1.53553       -0.06645
H          1.10531       -0.35091        1.16714
H          2.27803       -0.77060       -0.09236
H         -0.40336        0.63714       -0.56087
H          1.14511        1.45727       -0.40947
H          2.02451        0.36301       -2.39076
H          0.70627       -1.03664       -3.89744
H          0.90260       -1.81008       -2.34326
H         -1.63447       -0.42145       -3.35678
H         -1.36865       -2.15199       -3.14776
H         -1.45952       -1.10553       -1.72766
H          0.59304        1.41196       -4.12176
H         -0.70412        1.64132       -2.96653
H         -0.67737        3.04433       -0.49112
H         -1.23650        4.60769       -1.08799
H         -1.60364        3.18277       -2.03233
