18

O          1.10191        0.31641        0.55266
N          2.22829        0.10572        0.08565
O          2.72425        0.67657       -0.89432
C          3.04700       -0.89262        0.75133
C          4.27770       -0.46257        1.27101
C          5.09098       -1.37231        1.94226
C          4.67641       -2.69503        2.08941
C          3.45292       -3.11636        1.55815
C          2.61314       -2.22480        0.86634
C          1.31378       -2.74173        0.30728
O          1.56391       -3.86849       -0.52625
H          4.60082        0.57049        1.16085
H          6.04533       -1.05230        2.35412
H          5.30847       -3.40598        2.61819
H          3.15352       -4.15757        1.68107
H          0.65570       -3.05340        1.12526
H          0.77416       -2.01219       -0.29913
H          2.21902       -3.59667       -1.19204
