84

C          1.25149        0.16961       -0.48889
C          1.11530       -1.34297       -0.40922
C          1.47623       -1.91224        0.96532
C          0.62470       -1.39137        2.12746
C         -0.88688       -1.54705        1.93446
C         -1.36337       -2.99398        1.76410
C         -1.11017       -3.89795        2.97292
C         -1.61274       -3.33793        4.30373
C         -3.11682       -3.03345        4.34300
C         -3.99205       -4.26395        4.58221
C         -3.82617       -4.87985        5.96683
O         -4.22961       -3.97686        7.00986
C         -3.23495       -3.28235        7.61079
O         -2.07330       -3.15454        7.25997
C         -3.73365       -2.70445        8.85770
C         -3.75971       -1.30920        8.96772
C         -4.15325       -0.72067       10.16823
C         -4.50802       -1.52223       11.25500
C         -4.48168       -2.91634       11.14305
C         -4.08526       -3.51896        9.94169
C         -4.05578       -4.99919        9.87556
O         -4.84146       -5.71319       10.47820
O         -3.01482       -5.39720        9.11378
C         -2.83685       -6.79671        8.85348
C         -1.57941       -7.27077        9.56998
C         -1.68550       -7.14508       11.09027
C         -2.76358       -8.04612       11.69795
C         -2.40081       -9.53265       11.69501
C         -1.18979       -9.88214       12.56438
C         -1.28582       -9.38482       14.01090
C         -2.51597       -9.88807       14.77421
C         -2.59555      -11.41048       14.92008
C         -1.37721      -12.05618       15.58347
C         -1.10850      -11.52767       16.98396
H          0.56289        0.67510        0.19471
H          1.02199        0.51450       -1.50181
H          2.27135        0.48240       -0.24483
H          0.09582       -1.63248       -0.68708
H          1.77540       -1.79605       -1.15790
H          1.40270       -3.00551        0.92260
H          2.52884       -1.68996        1.17996
H          0.93800       -1.90134        3.04641
H          0.84695       -0.33035        2.29275
H         -1.39692       -1.08134        2.78571
H         -1.21139       -0.96810        1.06302
H         -2.43613       -2.98288        1.54002
H         -0.89105       -3.44553        0.88479
H         -1.57150       -4.87542        2.78912
H         -0.03333       -4.08703        3.06385
H         -1.33258       -4.04990        5.08561
H         -1.06513       -2.41950        4.54440
H         -3.31217       -2.29154        5.12461
H         -3.43939       -2.54973        3.41662
H         -5.03911       -3.96152        4.46134
H         -3.78533       -5.02429        3.82056
H         -4.48259       -5.75410        6.04638
H         -2.80906       -5.25085        6.13048
H         -3.46484       -0.68707        8.12524
H         -4.17264        0.36311       10.26043
H         -4.79915       -1.05931       12.19566
H         -4.75172       -3.53005       12.00076
H         -3.72425       -7.38493        9.10442
H         -2.68813       -6.90814        7.77503
H         -1.35214       -8.30105        9.27809
H         -0.73436       -6.65262        9.24095
H         -0.70781       -7.35904       11.53418
H         -1.90278       -6.10429       11.35711
H         -2.96928       -7.70580       12.71794
H         -3.71335       -7.92885       11.16962
H         -3.27197      -10.10338       12.03739
H         -2.21317       -9.87332       10.67030
H         -1.05194      -10.96931       12.55228
H         -0.28112       -9.46824       12.11183
H         -0.37141       -9.66983       14.54236
H         -1.28967       -8.28845       14.02506
H         -2.52725       -9.42266       15.76648
H         -3.43182       -9.53797       14.28342
H         -3.49258      -11.65624       15.50170
H         -2.74258      -11.86707       13.93393
H         -1.54371      -13.13808       15.63961
H         -0.48556      -11.91552       14.96251
H         -1.98221      -11.66853       17.62774
H         -0.26389      -12.05984       17.43160
H         -0.85687      -10.46286       16.97289
