24

C          0.50826       -0.19245        0.04629
O          0.63491        0.44639        1.31908
C          0.95534       -0.47518        2.29168
C         -0.05713       -0.97216        3.14195
C         -1.46023       -0.78310        3.28125
C         -1.85944       -1.57275        4.33488
O         -0.80091       -2.24745        4.85348
C          0.29553       -1.88165        4.13376
C          1.58826       -2.34409        4.35100
C          2.56697       -1.80931        3.50913
O          3.88542       -2.27817        3.71896
C          4.94884       -1.83642        2.94514
O          6.08471       -2.27316        3.07448
C          4.65137       -0.78897        1.95586
C          3.41408       -0.33005        1.75027
C          2.29059       -0.87257        2.50778
H         -0.06316        0.47355       -0.60707
H         -0.02224       -1.14925        0.10762
H          1.49365       -0.33857       -0.40746
H         -2.09555       -0.14050        2.68870
H         -2.80990       -1.75691        4.81678
H          1.81635       -3.05852        5.13155
H          5.50137       -0.40379        1.40615
H          3.23078        0.46268        1.03310
