42

C          1.41991       -0.99033        1.38762
O          0.62087       -1.96090        0.72699
C          1.16501       -2.37448       -0.52599
C          0.48826       -1.67324       -1.71846
N          1.17995       -0.44538       -2.15255
C          1.91940       -0.51889       -3.42161
C          1.00795       -0.36643       -4.65314
O          0.53120        0.97715       -4.75436
C         -0.87203        1.08602       -4.54451
C          0.80680        0.76585       -1.56575
O         -0.17208        0.84507       -0.81750
C          1.61316        2.03870       -1.89099
O          3.03526        1.95070       -1.86128
C          3.58161        1.87716       -0.62787
O          2.99290        1.84407        0.44048
C          5.04893        1.78395       -0.75032
C          5.73827        0.89293        0.07918
C          7.12870        0.80952        0.00120
C          7.82779        1.62691       -0.88867
C          7.14063        2.52425       -1.70800
C          5.74900        2.60204       -1.64477
H          0.84534       -0.56673        2.21537
H          1.70391       -0.18699        0.71371
H          2.32121       -1.46212        1.78943
H          2.25710       -2.27620       -0.54810
H          0.93571       -3.44372       -0.59582
H          0.48348       -2.36840       -2.56639
H         -0.55574       -1.44128       -1.48176
H          2.68470        0.25711       -3.45228
H          2.43498       -1.48569       -3.45415
H          1.60290       -0.55726       -5.55264
H          0.18476       -1.09063       -4.64278
H         -1.40723        0.70882       -5.42004
H         -1.18825        0.54360       -3.64891
H         -1.11517        2.14410       -4.41299
H          1.32686        2.38485       -2.88655
H          1.28940        2.82852       -1.20051
H          5.19517        0.26685        0.78371
H          7.66856        0.11500        0.64035
H          8.91283        1.57036       -0.93788
H          7.69075        3.16900       -2.38915
H          5.21983        3.31241       -2.27499
