50

C          1.12699       -1.21952       -0.05333
C          0.22452       -0.01347       -0.01398
C          0.98296        1.28925       -0.13021
C         -1.09624       -0.10943       -0.74156
C         -1.08807        0.01960        0.76642
C         -1.69756       -1.06148        1.60554
O         -2.56210       -0.73634        2.40456
N         -1.30620       -2.34212        1.33347
C         -1.51711       -3.31849        2.16281
C         -2.14940       -3.26917        3.53906
C         -3.64162       -3.57880        3.44398
C         -3.99280       -5.06579        3.56985
C         -3.82137       -5.68797        4.96276
C         -4.42535       -4.94842        6.16262
S         -6.16835       -5.30111        6.60513
C         -7.12504       -4.66218        5.18201
C         -7.51332       -3.16998        5.19729
N         -6.47742       -2.21485        5.63880
C         -7.97778       -2.78984        3.78800
O         -9.10106       -2.45296        3.45229
O         -6.98327       -2.86013        2.87106
C         -1.15027       -4.71734        1.65883
O         -1.36127       -5.12160        0.53488
O         -0.58247       -5.47390        2.60236
H          0.59141       -2.16793       -0.12393
H          1.77574       -1.16787       -0.93521
H          1.76579       -1.24569        0.83534
H          1.40886        1.39021       -1.13409
H          0.34170        2.15869        0.05026
H          1.80161        1.32249        0.59630
H         -1.44008        0.74224       -1.31820
H         -1.38050       -1.06332       -1.17515
H         -1.37279        0.99806        1.15115
H         -1.63751       -3.95848        4.21610
H         -1.99504       -2.28270        3.98465
H         -4.15712       -3.01105        4.21635
H         -4.03974       -3.21207        2.48958
H         -5.01641       -5.21133        3.22308
H         -3.38925       -5.64593        2.86326
H         -4.18241       -6.72387        4.93853
H         -2.74104       -5.76561        5.14524
H         -3.87049       -5.29489        7.04429
H         -4.24602       -3.87362        6.13062
H         -6.64046       -4.95986        4.25766
H         -8.06186       -5.23432        5.18927
H         -8.37130       -3.03935        5.86654
H         -5.79294       -2.09615        4.89311
H         -5.99190       -2.60862        6.44298
H         -7.40799       -2.56429        2.03762
H         -0.43025       -6.33254        2.15383
