21

C         -3.02329        0.04998        0.20237
C         -1.52279        0.02354        0.05986
C         -0.79102       -1.18383       -0.00252
N         -1.44542       -2.50374       -0.03535
O         -0.81571       -3.46206        0.42820
O         -2.57176       -2.58546       -0.54603
C          0.61990       -1.18826       -0.05624
C          1.34473        0.00118       -0.02450
N          2.73064       -0.01370       -0.18876
C          0.64411        1.20096       -0.07993
C         -0.76261        1.20961       -0.03331
N         -1.39640        2.52451       -0.11937
O         -0.94000        3.41800        0.60565
O         -2.32079        2.66138       -0.93154
H         -3.50189       -0.12850       -0.76554
H         -3.35781       -0.69967        0.92725
H         -3.39038        1.00057        0.59982
H          1.16177       -2.13126       -0.12371
H          3.19141       -0.85720        0.14385
H          3.20841        0.82437        0.13323
H          1.19253        2.13854       -0.16350
