29

C          0.81599       -0.36586        0.45203
C          0.09847       -1.02958       -0.46297
C         -1.34976       -0.74291       -0.76687
C         -1.57546        0.19077       -1.97743
C         -0.98966       -0.48551       -3.22449
O         -1.63760       -1.27243       -3.91894
N          0.33404       -0.28644       -3.53027
C          0.98111        0.92054       -3.50653
N          2.27636        0.81058       -3.92081
O          0.52577        2.00373       -3.17670
C         -3.08234        0.51195       -2.21278
C         -3.78491        1.05188       -0.96170
C         -3.24764        1.53992       -3.34272
H          0.38919        0.44875        1.02998
H          1.85400       -0.62170        0.64030
H          0.56724       -1.84297       -1.01299
H         -1.86054       -1.70055       -0.92964
H         -1.79985       -0.30488        0.13109
H         -1.06491        1.13418       -1.76987
H          0.61002       -0.84833       -4.32183
H          2.80264        1.66966       -3.80627
H          2.77729       -0.02242       -3.64308
H         -3.60661       -0.40392       -2.51539
H         -3.24179        1.90266       -0.53692
H         -4.80176        1.38460       -1.19809
H         -3.87902        0.28041       -0.19168
H         -2.83595        1.17307       -4.28769
H         -4.30718        1.75870       -3.51520
H         -2.74480        2.48143       -3.09641
