30

C          0.84517        0.14281        0.20656
C          0.37912        0.79195        1.43058
C          0.00462        1.28176        2.46323
C         -0.42584        1.76421        3.73791
C         -0.92904        0.88041        4.66325
C         -1.25587        1.42519        5.87774
C         -1.83513        0.58527        6.97207
N         -1.07381        2.73000        6.13918
C         -0.59158        3.52715        5.16883
N         -0.46480        4.89692        5.40566
C         -0.72652        5.59011        6.59477
C         -0.29687        5.09834        7.83597
C         -0.64393        5.73529        9.02861
C         -1.44900        6.86909        8.99778
C         -1.89134        7.37036        7.77473
C         -1.52734        6.73777        6.58071
N         -0.26973        3.08478        3.94667
H          0.49427        0.67669       -0.68095
H          0.47590       -0.88638        0.15209
H          1.93849        0.10878        0.17619
H         -1.05151       -0.17204        4.44863
H         -2.77243        0.12750        6.64110
H         -1.13020       -0.19936        7.26160
H         -2.05030        1.19480        7.85624
H         -0.46711        5.41048        4.53883
H          0.32103        4.20406        7.87838
H         -0.29591        5.33288        9.97578
H         -1.73939        7.35379        9.92578
H         -2.53593        8.24479        7.75037
H         -1.90889        7.12793        5.64121
