29

O          0.18830       -0.40164       -0.61405
C          1.39372       -0.29903       -0.50035
O          2.00596        0.77244        0.06178
C          2.37605       -1.26200       -1.05083
C          3.54876       -1.51027       -0.31915
C          4.59668       -2.18220       -0.92504
C          4.50575       -2.47932       -2.28490
C          3.29429       -2.30701       -2.98583
C          2.13276       -1.94064       -2.27569
C          0.99099       -3.00808       -2.15418
O          1.77031       -4.06572       -1.48056
C          2.17534       -4.97548       -2.40793
O          3.22718       -5.58870       -2.48056
C          1.03310       -5.07340       -3.27275
C          0.50985       -6.28786       -3.70089
C         -0.81837       -6.30687       -4.09476
C         -1.55584       -5.11142       -4.09330
C         -0.98537       -3.88885       -3.65626
C          0.33692       -3.87467       -3.20564
H          2.97351        0.81697       -0.07807
H          3.62815       -1.21532        0.72616
H          5.47764       -2.45983       -0.35013
H          5.34692       -2.97066       -2.77150
H          3.23260       -2.71718       -3.99168
H          0.21361       -2.67374       -1.46183
H          1.08140       -7.20443       -3.58293
H         -1.29787       -7.25706       -4.32743
H         -2.61332       -5.16080       -4.35638
H         -1.63944       -3.02590       -3.55118
