31

C          0.68895       -0.02398       -0.19593
C          0.54605       -1.26263        0.68818
C          1.08614       -1.10572        2.14587
C          2.55847       -0.63246        2.17802
C          3.00730        0.40127        3.01729
C          4.35278        0.78402        3.04281
C          5.28505        0.12926        2.24561
C          4.87337       -0.91132        1.42181
C          3.52808       -1.28851        1.39012
C          1.07477       -2.47966        2.87620
C         -0.31927       -3.06697        3.02333
C         -1.24499       -2.09871        3.70388
O         -2.26328       -2.46201        4.28535
N         -0.93509       -0.76999        3.58233
C          0.09035       -0.17665        2.88114
O          0.10207        1.05186        2.80078
H          0.14629        0.83157        0.21492
H          0.27250       -0.22974       -1.18779
H          1.73472        0.26336       -0.33461
H         -0.52166       -1.51527        0.70893
H          1.04301       -2.10129        0.18543
H          2.32755        0.94404        3.66960
H          4.66890        1.59851        3.69007
H          6.32930        0.42824        2.26940
H          5.59846       -1.43313        0.80265
H          3.25016       -2.11421        0.73889
H          1.51111       -2.36496        3.87932
H          1.70159       -3.21029        2.34916
H         -0.26312       -3.97469        3.63461
H         -0.74865       -3.34241        2.05528
H         -1.58675       -0.13001        4.01580
