21

C          0.95187        0.20007       -0.06119
C          0.49417       -1.13478       -0.63663
C          1.01721       -2.39858        0.09886
C          0.51771       -2.43122        1.55507
C          0.44641       -3.63406       -0.62982
C          2.56095       -2.46864        0.10762
O          3.11094       -2.35623       -1.19844
H          0.61309        0.33276        0.97000
H          0.53150        1.02074       -0.65220
H          2.04030        0.30085       -0.08829
H         -0.60383       -1.14514       -0.63520
H          0.79433       -1.17171       -1.69175
H         -0.57317       -2.34001        1.60180
H          0.79349       -3.37267        2.04418
H          0.94870       -1.61938        2.15006
H          0.72295       -3.64348       -1.68953
H          0.81339       -4.56351       -0.18006
H         -0.64837       -3.65080       -0.57741
H          2.98685       -1.66132        0.71241
H          2.91185       -3.41070        0.54506
H          2.88521       -3.16617       -1.68575
