17

C          1.17064       -0.10542       -0.00680
C          0.51893        1.27945       -0.00960
C          0.98050        2.06135       -1.24111
C         -1.01196        1.19366        0.00891
C         -1.54580        0.69953        1.32422
O         -1.86588        1.38976        2.27749
O         -1.63162       -0.64199        1.38622
H          0.79310       -0.72452       -0.82772
H          0.97856       -0.63126        0.93347
H          2.25751       -0.02546       -0.11659
H          0.86135        1.81699        0.88393
H          0.65999        1.56999       -2.16626
H          0.56900        3.07613       -1.23519
H          2.07228        2.14560       -1.26315
H         -1.45183        2.18583       -0.15455
H         -1.39390        0.55789       -0.79864
H         -1.96346       -0.81836        2.29135
