135

C          2.16529        2.02291       -0.12878
C          1.05472        0.98146       -0.11251
C         -0.31069        1.39569       -0.15304
C         -0.63796        2.88892       -0.33626
C         -0.22023        3.49236       -1.66893
C         -0.07557        4.87601       -1.78578
C          0.48342        5.47784       -2.93400
C          0.51790        7.02772       -2.98442
C         -0.93173        7.56107       -2.85537
C          1.35947        7.57354       -1.80629
C          1.09302        7.67265       -4.26515
C          0.97301        4.60430       -3.93680
O          1.60357        5.17194       -5.00616
C          0.85011        3.19212       -3.85626
C          1.52479        2.17753       -4.81870
C          0.75620        2.11695       -6.15111
C          3.01431        2.52623       -5.05456
C          1.55401        0.71799       -4.26763
C          0.13531        2.69081       -2.75772
C         -1.35866        0.42979       -0.03643
C         -2.78376        0.93833        0.02515
C         -1.04140       -0.95759        0.01307
C         -2.11605       -2.03265        0.25168
C         -2.04754       -2.81328        1.56408
C         -2.90293       -3.90692        1.75326
C         -2.87221       -4.70911        2.91950
C         -3.91440       -5.85032        3.04904
C         -5.33558       -5.23898        2.99928
C         -3.74249       -6.83946        1.87310
C         -3.86638       -6.70434        4.33806
C         -1.88859       -4.39433        3.88297
O         -1.82981       -5.16871        5.00470
C         -0.97806       -3.32232        3.72939
C          0.19986       -3.04050        4.69828
C         -0.31354       -2.32494        5.96347
C          0.98194       -4.32147        5.07163
C          1.26878       -2.11299        4.07727
C         -1.14898       -2.50690        2.59115
C          0.32515       -1.36207       -0.09837
C          0.68266       -2.82773       -0.25937
C          1.36703       -0.39954       -0.00180
C          2.80240       -0.84629        0.31247
C          3.41023       -0.32990        1.61628
C          4.76172       -0.55744        1.87426
C          5.40041       -0.08510        3.04390
C          6.90088       -0.43944        3.22430
C          7.07041       -1.97977        3.18848
C          7.71142        0.18428        2.06322
C          7.58181        0.02779        4.53011
C          4.61473        0.67635        3.94830
O          5.25005        1.16452        5.05309
C          3.23845        0.94501        3.73231
C          2.33966        1.83056        4.63998
C          2.07282        1.14109        5.99557
C          2.97217        3.22619        4.84725
C          0.92731        2.12682        4.04558
C          2.67594        0.37978        2.57368
H          2.10681        2.67691       -0.99695
H          2.12548        2.63227        0.77909
H          3.16604        1.59385       -0.19933
H         -0.12796        3.42596        0.47575
H         -1.69814        3.11201       -0.19606
H         -0.39051        5.49343       -0.94655
H         -1.38971        7.30470       -1.89404
H         -0.96272        8.65400       -2.93638
H         -1.57157        7.15004       -3.64557
H          2.38386        7.18478       -1.84142
H          1.41723        8.66842       -1.83655
H          0.93920        7.30859       -0.83041
H          2.15402        7.43414       -4.39926
H          0.53949        7.36386       -5.15900
H          1.02709        8.76700       -4.21958
H          1.46432        4.61359       -5.78174
H          0.75721        3.06537       -6.69244
H          1.19300        1.36723       -6.82112
H         -0.29209        1.84182       -5.98406
H          3.54442        2.63947       -4.10060
H          3.52111        1.73365       -5.61863
H          3.16358        3.44277       -5.62843
H          2.04012        0.66746       -3.28558
H          0.54882        0.28954       -4.17947
H          2.11067        0.05058       -4.93679
H         -0.04882        1.62503       -2.66931
H         -2.91192        1.56588        0.91415
H         -3.01293        1.51748       -0.87613
H         -3.55612        0.17591        0.07998
H         -2.07349       -2.73956       -0.58676
H         -3.12613       -1.63020        0.19426
H         -3.62032       -4.13120        0.96535
H         -5.54578       -4.74249        2.04629
H         -6.10405       -6.00981        3.13127
H         -5.46987       -4.49639        3.79529
H         -2.72600       -7.25025        1.85283
H         -4.43990       -7.68123        1.95914
H         -3.92999       -6.37247        0.90082
H         -2.91396       -7.23734        4.43797
H         -4.03448       -6.09733        5.23516
H         -4.65056       -7.47158        4.33383
H         -1.63211       -4.59568        5.75803
H         -1.01368       -2.92923        6.54443
H          0.51636       -2.06720        6.63199
H         -0.83072       -1.39274        5.70469
H          1.27320       -4.87705        4.17197
H          1.90176       -4.07656        5.61745
H          0.42601       -4.99934        5.72164
H          1.63549       -2.49992        3.11957
H          0.86098       -1.11183        3.92067
H          2.13709       -1.99359        4.73607
H         -0.52904       -1.62593        2.46289
H          0.92560       -3.28179        0.70446
H         -0.11339       -3.40467       -0.73574
H          1.53492       -2.93956       -0.93932
H          3.43757       -0.55655       -0.53476
H          2.87347       -1.93572        0.37797
H          5.32946       -1.12030        1.13532
H          6.77847       -2.41505        2.22706
H          8.11485       -2.26810        3.35693
H          6.46298       -2.45881        3.96575
H          7.57754        1.27210        2.03211
H          8.78331       -0.01715        2.17526
H          7.41648       -0.21164        1.08558
H          7.59886        1.12017        4.61257
H          7.09193       -0.39263        5.41572
H          8.62861       -0.29888        4.56763
H          4.60766        1.37399        5.74059
H          2.97648        0.89656        6.55610
H          1.45937        1.77795        6.64395
H          1.52748        0.20244        5.85553
H          3.17673        3.70670        3.88273
H          2.29591        3.88469        5.40596
H          3.90798        3.20722        5.40844
H          0.99345        2.61843        3.06802
H          0.32571        1.21731        3.93455
H          0.35340        2.79341        4.70119
H          1.61593        0.50568        2.38461
