28

N         -2.70618       -1.60944        0.20843
C         -1.71127       -0.63354        0.32284
C         -2.06041        0.71229        0.44803
C         -1.09175        1.72168        0.38149
C          0.24322        1.40102        0.12872
O          1.24118        2.31529       -0.08496
C          0.92799        3.70653       -0.17505
C          0.24015        4.15800       -1.45122
C         -0.09041        3.28384       -2.49977
C         -0.78141        3.73819       -3.62739
C         -1.12069        5.08318       -3.74004
C         -0.76190        5.96123       -2.72646
F         -1.07165        7.25975       -2.83896
C         -0.09249        5.51490       -1.59015
C          0.59330        0.04884       -0.00630
Cl         2.22602       -0.42956       -0.32667
C         -0.37882       -0.95433        0.06571
H         -2.39343       -2.55439        0.40905
H         -3.57598       -1.38072        0.67908
H         -3.10264        0.99511        0.57755
H         -1.42904        2.74806        0.48074
H          0.36401        4.02812        0.70935
H          1.89221        4.22786       -0.12885
H          0.17210        2.22897       -2.45085
H         -1.05343        3.03782       -4.41325
H         -1.65534        5.45032       -4.60961
H          0.16271        6.23608       -0.81880
H         -0.09218       -1.98888       -0.10138
