18

C          0.95818       -0.12451       -0.02959
C          0.56735        0.94822        0.97519
C          1.01636        2.35448        0.57045
C          0.43083        2.88425       -0.74495
C         -1.09485        2.93126       -0.83659
S         -1.84819        4.09066        0.34244
H          0.44144        0.01152       -0.98410
H          0.69041       -1.11423        0.35424
H          2.03693       -0.11443       -0.21463
H         -0.51521        0.92209        1.13796
H          1.02971        0.70412        1.93946
H          0.77819        3.04646        1.38648
H          2.11042        2.36283        0.48414
H          0.83606        3.88858       -0.92544
H          0.80320        2.26637       -1.57128
H         -1.37995        3.25943       -1.84171
H         -1.53262        1.94012       -0.68679
H         -1.53306        3.41422        1.45629
