36

C          0.95593       -0.01380       -0.06998
C          0.43496        0.90756        1.04261
C          1.15452        2.25968        0.92426
C         -1.09032        0.98654        1.04678
C         -1.85517       -0.19409        1.11468
C         -3.25598       -0.15938        1.12210
C         -3.92444        1.06108        1.08463
O         -5.29637        1.02290        1.09282
C         -5.98469        2.21551        1.09305
N         -7.33188        2.08137        1.13215
C         -8.08977        3.20323        1.15710
N         -9.44811        2.96439        1.32785
C         -7.53216        4.48643        1.13243
C         -8.31407        5.74177        1.14722
O         -7.85564        6.84731        1.37601
O         -9.60771        5.59702        0.80613
C         -6.13954        4.60403        1.08690
C         -5.36240        3.44959        1.07021
C         -3.90182        3.51385        1.03484
O         -3.31503        4.58670        1.00148
C         -3.18268        2.23481        1.04571
C         -1.78265        2.20647        1.02528
H          0.60985        0.31769       -1.05528
H          0.62590       -1.04800        0.07052
H          2.05154       -0.02958       -0.08239
H          0.73000        0.47615        2.00876
H          0.89852        2.76970       -0.01183
H          0.89836        2.92231        1.75809
H          2.24175        2.12615        0.94196
H         -1.36484       -1.16495        1.16460
H         -3.81825       -1.08948        1.16265
H        -10.02399        3.58545        0.76294
H         -9.63881        1.97619        1.19542
H         -9.96365        6.50932        0.88191
H         -5.66362        5.58313        1.07152
H         -1.25362        3.15628        0.99607
