34

C          0.30844        0.04108        0.65966
C          0.42811        1.43990        1.24211
O          1.06163        2.35136        0.34849
P          2.79163        2.35136        0.34849
S          2.80626        1.18093       -1.35748
O          2.80284        3.91016       -0.22609
C          1.70751        4.57803       -0.85767
C          1.08690        3.93555       -2.09828
O          4.52163        2.35136        0.34850
C          5.09775        1.38460        1.15500
C          4.75180        0.03968        1.10036
N          5.29200       -0.90701        1.89874
C          6.25803       -0.49443        2.72713
C          6.87852       -1.43967        3.53190
C          7.90276       -1.07726        4.40179
C          8.30300        0.25053        4.46327
C          7.67503        1.20883        3.65800
C          6.64956        0.86572        2.78069
N          6.05361        1.81197        2.00682
H         -0.05008        0.06919       -0.37490
H         -0.37696       -0.57286        1.25043
H          1.27912       -0.46510        0.66041
H         -0.57740        1.82912        1.42899
H          0.96371        1.42081        2.19589
H          0.93547        4.78555       -0.11042
H          2.09936        5.55052       -1.17444
H          0.52626        3.02536       -1.86516
H          0.36684        4.61745       -2.56246
H          1.84380        3.68005       -2.84548
H          4.03647       -0.37538        0.40506
H          6.56254       -2.47812        3.46956
H          8.38362       -1.83274        5.01849
H          9.10707        0.54489        5.13375
H          7.99825        2.24459        3.70912
