34

C          0.80616        0.56220        0.00873
C          0.70064        0.36424       -1.49194
O          1.96391        0.17513       -2.09494
P          2.78934       -1.22166       -2.14781
S          2.61226       -2.37457       -0.58152
O          2.24934       -1.86786       -3.53041
C          0.89477       -2.10457       -3.85461
C          0.19352       -3.10246       -2.95242
S          4.74818       -0.55799       -2.53500
C          5.53000       -1.54060       -3.80618
S          5.08883       -3.28159       -3.97354
C          5.59159       -4.08103       -2.46072
C          5.23209       -5.43494       -2.34678
C          5.49937       -6.15704       -1.18109
C          6.12501       -5.52878       -0.11262
Cl         6.42291       -6.39975        1.33963
C          6.51317       -4.19486       -0.21527
C          6.26309       -3.48072       -1.39405
H          0.68930       -0.39180        0.53102
H          0.00250        1.21086        0.36935
H          1.77164        0.98796        0.29760
H          0.00709       -0.43976       -1.73994
H          0.29252        1.28131       -1.93077
H          0.35173       -1.15757       -3.90533
H          0.89442       -2.51686       -4.86972
H         -0.02433       -2.66880       -1.97339
H         -0.76397       -3.40568       -3.38640
H          0.80621       -3.99462       -2.79177
H          5.29175       -1.06877       -4.76481
H          6.61580       -1.45977       -3.69167
H          4.72194       -5.93912       -3.16522
H          5.20023       -7.19986       -1.11414
H          6.99551       -3.69824        0.62156
H          6.58723       -2.44605       -1.42682
