55

C          1.19736        0.25889        0.54800
C          0.99062        1.22356       -0.60975
C          1.42538        0.64075       -1.95699
C          0.69292       -0.64281       -2.36065
C         -0.82809       -0.49026       -2.45369
C         -1.28467        0.46689       -3.55879
C         -0.90013        0.00715       -4.96897
C         -1.42952       -1.38626       -5.32910
C         -2.95528       -1.51039       -5.23940
C         -3.71245       -0.51764       -6.12627
C         -3.31094       -0.57797       -7.60073
C         -3.69409       -1.89593       -8.28022
C         -5.17401       -1.96659       -8.66635
C         -5.58131       -0.98814       -9.77228
N         -5.05347       -1.43721      -11.04957
C         -3.92632       -1.07759      -11.53399
O         -3.09827       -0.17030      -10.98625
C         -3.40848       -1.62678      -12.85665
C         -3.74688       -3.10284      -13.01236
O         -3.98864       -0.89158      -13.92950
H          0.57689       -0.63649        0.44441
H          0.92521        0.73826        1.49280
H          2.24450       -0.05316        0.61063
H         -0.05999        1.53238       -0.64602
H          1.56936        2.13458       -0.41964
H          1.29041        1.40419       -2.73234
H          2.50150        0.43177       -1.92619
H          1.09644       -0.99201       -3.31803
H          0.92405       -1.44042       -1.64601
H         -1.27143       -1.48028       -2.60805
H         -1.23569       -0.14770       -1.49689
H         -2.37243        0.58575       -3.49277
H         -0.87515        1.46838       -3.38693
H         -1.26499        0.74649       -5.69151
H          0.18980        0.01210       -5.08142
H         -1.08864       -1.64664       -6.33754
H         -0.97446       -2.14180       -4.67922
H         -3.24107       -2.53641       -5.49469
H         -3.28332       -1.37263       -4.20280
H         -4.78890       -0.69219       -6.02110
H         -3.54370        0.50263       -5.76176
H         -3.76680        0.27624       -8.10783
H         -2.23192       -0.42514       -7.70894
H         -3.06825       -2.04169       -9.16589
H         -3.45831       -2.74571       -7.63134
H         -5.39606       -2.99058       -8.99266
H         -5.79235       -1.78405       -7.78030
H         -6.67486       -1.00399       -9.84835
H         -5.32998        0.04962       -9.53945
H         -3.47757        0.23472      -10.19795
H         -2.32146       -1.49818      -12.89768
H         -4.83150       -3.25920      -13.04557
H         -3.34712       -3.49004      -13.95480
H         -3.34273       -3.69506      -12.18489
H         -4.95166       -0.91215      -13.78043
