14

C          0.94007        0.13893       -0.04356
C          0.43042       -0.79084       -1.14234
N          0.91343       -2.16609       -0.93683
C         -0.03649       -3.13955       -1.48967
N          2.16398       -2.32470       -1.32919
O          2.57168       -3.47248       -1.12849
H          0.62373       -0.21742        0.94324
H          0.52897        1.14418       -0.18193
H          2.03168        0.21832       -0.04735
H         -0.66571       -0.75511       -1.09842
H          0.71203       -0.40257       -2.13115
H         -0.05069       -3.13096       -2.58578
H          0.19524       -4.15676       -1.15048
H         -1.05330       -2.93782       -1.13162
