46

C          0.82015       -0.01419       -0.14171
O          0.16978        1.08064        0.49424
C          0.68930        1.49646        1.68817
C          0.03846        2.58760        2.26872
C          0.50489        3.14574        3.46413
C          1.63044        2.61207        4.10149
C          2.11248        3.28443        5.34660
O          1.27867        3.80476        6.08981
N          3.44313        3.30996        5.72981
C          4.56036        2.79282        5.04938
C          5.34108        1.86910        5.74565
C          6.28005        1.10350        5.05849
C          6.49150        1.28777        3.68210
C          7.41507        0.33211        2.94371
N          6.63938       -0.57762        2.08627
N          6.70560       -0.62237        0.84480
C          7.53890        0.17736        0.10090
O          7.59971        0.08359       -1.12253
C          8.32560        1.26510        0.77919
C          8.59768        1.00333        2.24726
C          9.87181        0.16868        2.43398
C          5.79534        2.31588        3.02745
C          4.82169        3.07073        3.69399
N          4.27897        4.19870        3.05646
C          2.21170        1.45526        3.56913
C          1.77382        0.92560        2.34917
H          0.29842       -0.21344       -1.08258
H          0.75733       -0.91880        0.47214
H          1.86080        0.22820       -0.38311
H         -0.83721        3.01231        1.78342
H         -0.01652        3.99828        3.89495
H          3.52844        3.44117        6.73092
H          5.15422        1.65977        6.79572
H          6.81188        0.32439        5.60222
H          7.83472       -0.32293        3.71908
H          7.76361        2.19543        0.65085
H          9.26937        1.38621        0.23322
H          8.81022        1.96859        2.72666
H         10.73229        0.66460        1.97301
H         10.09836        0.05527        3.50084
H          9.77208       -0.83018        1.99862
H          5.97763        2.52157        1.97764
H          4.10537        4.07783        2.06412
H          3.48979        4.60787        3.54763
H          3.02627        0.94846        4.07637
H          2.30547        0.06779        1.94937
