12

O          2.85064        0.23857        0.00150
C          1.64499        0.01905       -0.00009
N          1.13974       -1.25647        0.00176
C         -0.20075       -1.53885        0.00200
C         -1.10212       -0.55637        0.00075
F         -2.42695       -0.78884        0.00186
C         -0.64755        0.85280       -0.00104
O         -1.42666        1.79907       -0.00005
N          0.71532        1.02424       -0.00328
H          1.82614       -2.00361        0.00382
H         -0.48959       -2.58365        0.00375
H          1.06190        1.97093       -0.00387
