18

O          1.17786        0.00319       -0.16081
C          2.39705        0.02962       -0.10509
C          3.26973        1.17735       -0.56272
C          4.64981        0.51958       -0.34369
C          4.85585       -0.61658       -1.36750
C          3.89396       -1.71947       -0.87774
C          3.28083       -1.10093        0.38193
C          4.43549       -0.27467        0.94757
H          3.08273        1.42981       -1.60832
H          3.12088        2.03692        0.09573
H          5.47137        1.23843       -0.32074
H          4.63360       -0.30307       -2.39239
H          5.88874       -0.98184       -1.33732
H          3.14310       -1.95959       -1.63795
H          4.45361       -2.63035       -0.63937
H          2.78810       -1.78112        1.07528
H          5.30118       -0.88431        1.22719
H          4.14367        0.36051        1.79130
