44

C          1.06278        0.09208       -0.12897
C          0.50717       -1.02652       -1.00081
C          1.11605       -2.39819       -0.71293
C          0.58132       -3.06751        0.52930
O          0.06053       -4.17460        0.54143
O          0.80244       -2.30712        1.62720
C          0.29419       -2.81836        2.86414
N         -1.14367       -2.71234        2.90369
C         -1.91386       -3.87069        2.83853
N         -3.21211       -3.92149        2.85417
C         -3.78065       -2.69793        2.94650
C         -3.14937       -1.48271        3.00582
C         -4.17292       -0.52940        3.05825
N         -5.38902       -1.09481        3.05903
N         -5.11827       -2.43081        3.03757
C         -6.18398       -3.41719        3.10371
O         -7.05165       -3.16631        4.21935
C         -6.49773       -3.37434        5.43927
O         -5.37473       -3.81620        5.64079
C         -7.48398       -3.07505        6.54061
C         -7.93527       -1.61864        6.59875
C         -8.95823       -1.25118        5.53276
C         -1.71480       -1.44062        3.00188
O         -1.08327       -0.39206        3.08038
H          0.68844        0.02957        0.89590
H          0.75353        1.06516       -0.52367
H          2.15652        0.06898       -0.10035
H         -0.58355       -1.06030       -0.89690
H          0.72308       -0.77276       -2.04581
H          0.87285       -3.06063       -1.55348
H          2.20822       -2.35510       -0.64864
H          0.63512       -3.84840        3.02170
H          0.71645       -2.20136        3.66475
H         -1.33356       -4.80520        2.77111
H         -4.09040        0.54957        3.09506
H         -6.76928       -3.31468        2.18447
H         -5.77168       -4.43018        3.14912
H         -8.33055       -3.76453        6.45485
H         -6.97912       -3.31462        7.48539
H         -8.39513       -1.44509        7.57925
H         -7.07339       -0.94570        6.52366
H         -9.76967       -1.98455        5.49094
H         -9.39617       -0.27277        5.75411
H         -8.50033       -1.18296        4.54218
