25

C          0.87481       -0.20054        0.11413
C          0.55254        1.08229        0.78296
C          1.17532        2.29677        0.57157
O          0.62604        3.26913        1.34126
C         -0.37082        2.69011        2.06209
C         -1.19269        3.34918        2.97036
C         -2.16309        2.55658        3.58646
O         -3.02703        3.20956        4.48875
C         -4.06418        2.53699        5.11776
O         -4.88027        3.12012        5.83034
C         -4.18050        1.05363        4.87638
N         -5.19005        0.37834        5.55360
C         -3.34427        0.44957        4.02165
C         -2.30411        1.19429        3.32884
C         -1.44734        0.56553        2.41082
C         -0.46138        1.33531        1.75812
H          0.44615       -0.22026       -0.89299
H          0.47706       -1.05408        0.67154
H          1.95843       -0.33247        0.02970
H          1.98690        2.61683       -0.06774
H         -1.08800        4.40718        3.17198
H         -5.59541       -0.38891        5.02678
H         -5.89269        1.03442        5.90653
H         -3.41471       -0.61739        3.84048
H         -1.53875       -0.49474        2.19518
