38

C          1.02731        0.21311        0.09526
C          0.50219        0.05312       -1.32967
C          0.90901       -1.28091       -1.99150
C          0.38984       -2.41209       -1.10449
O         -0.74477       -2.85840       -1.05387
O          1.34108       -2.90862       -0.28379
C          0.45995       -1.45357       -3.44741
C          0.10843       -0.38874       -4.29091
C         -0.32513       -0.61221       -5.61337
C         -0.44486       -1.90941       -6.12312
N         -0.97494       -2.18136       -7.41458
C         -1.54527       -3.38877       -7.76481
O         -1.77691       -4.39707       -7.12125
C         -1.92896       -3.29152       -9.16358
C         -2.50577       -4.24292       -9.98409
C         -2.72175       -3.88880      -11.31601
C         -2.36151       -2.60908      -11.78445
C         -1.79570       -1.65857      -10.92357
C         -1.59682       -2.03008       -9.60687
C         -1.02180       -1.29856       -8.47370
O         -0.65740       -0.14033       -8.57603
C         -0.02401       -2.96179       -5.30284
C          0.44074       -2.73886       -4.00474
H          0.55787       -0.49875        0.78154
H          0.80485        1.21806        0.46751
H          2.11165        0.06852        0.13322
H         -0.59089        0.15094       -1.31582
H          0.89383        0.89394       -1.91263
H          2.00610       -1.34146       -2.01099
H          0.86454       -3.59075        0.23544
H          0.14371        0.64117       -3.94432
H         -0.61311        0.25434       -6.20471
H         -2.76900       -5.22483       -9.60286
H         -3.16506       -4.61074      -11.99971
H         -2.52464       -2.36134      -12.83211
H         -1.51245       -0.67312      -11.27938
H         -0.02875       -3.99032       -5.65460
H          0.75779       -3.60648       -3.42900
