40

C          1.02103        0.12921       -0.18682
C          0.36405       -0.98860       -0.99058
C          1.00831       -2.35273       -0.76360
O         -1.07271       -1.01669       -0.81014
C         -1.59698       -1.29822        0.42204
O         -0.90828       -1.58254        1.38908
C         -3.12484       -1.27509        0.38166
S         -3.65455       -1.37975        2.10020
O         -3.36416       -2.70789        2.61671
O         -3.19047       -0.19557        2.79932
C         -5.44136       -1.27296        2.13406
C         -6.20808       -2.41799        1.89087
C         -7.59946       -2.35287        1.99183
C         -8.21341       -1.15887        2.37037
Cl        -9.92600       -1.08919        2.51385
C         -7.44827       -0.02674        2.65091
C         -6.05679       -0.08173        2.53831
C         -3.65967       -0.01728       -0.32433
C         -4.94209       -0.44149       -1.02592
C         -4.79683       -1.92636       -1.31607
C         -3.63060       -2.44617       -0.47688
H          0.96396       -0.04788        0.89107
H          0.51860        1.08291       -0.37982
H          2.07809        0.23083       -0.45247
H          0.50132       -0.74385       -2.05075
H          0.98389       -2.65350        0.28768
H          0.47843       -3.12531       -1.33033
H          2.05662       -2.34371       -1.07919
H         -5.73734       -3.36684        1.64371
H         -8.19691       -3.24007        1.79628
H         -7.92729        0.89408        2.97511
H         -5.46762        0.79806        2.79017
H         -3.83901        0.82105        0.35618
H         -2.96630        0.35333       -1.08816
H         -5.10447        0.13160       -1.94513
H         -5.81450       -0.25965       -0.39258
H         -4.59676       -2.09181       -2.38080
H         -5.72435       -2.46062       -1.08392
H         -2.85431       -2.81203       -1.16086
H         -3.93176       -3.31688        0.11291
