13

C          1.05184        0.05498       -0.03662
C          0.68311        0.56782        1.34176
C          1.10835        2.00282        1.53203
O          0.31388        2.93537        1.55598
C          2.61878        2.24473        1.69602
O          3.44127        1.35532        1.79846
O          2.95401        3.53801        1.71250
H          0.65187        0.70784       -0.81943
H          0.64882       -0.95109       -0.18833
H          2.13730        0.00648       -0.16798
H         -0.40363        0.51720        1.47501
H          1.12930       -0.04915        2.12843
H          3.92521        3.55548        1.82639
