28

C          1.01624       -0.09751        0.01409
C          0.51686       -0.13579        1.45640
O          1.03203        1.02170        2.11567
C         -1.03215       -0.18672        1.53338
O         -1.52327       -1.28857        0.75281
C         -1.52734       -0.33204        2.97050
C         -1.71783       -1.53748        3.54829
N         -2.14414       -1.65629        4.84433
C         -2.35698       -0.53581        5.60369
N         -2.68903       -0.55306        6.85232
C         -2.86001        0.61020        7.54091
N         -3.15203        0.47326        8.85536
N         -2.79364        1.80751        7.05942
C         -2.49352        1.98051        5.73347
O         -2.48049        3.08414        5.20142
C         -2.18246        0.77731        4.89088
N         -1.80070        0.85589        3.64265
H          0.62852        0.78517       -0.50663
H          0.72494       -0.99200       -0.54350
H          2.10886       -0.02012       -0.00949
H          0.93778       -1.02273        1.94600
H          1.99734        0.92763        2.17443
H         -1.46314        0.73205        1.11428
H         -1.65448       -0.94488       -0.14781
H         -1.53023       -2.47297        3.03038
H         -2.21369       -2.57151        5.26805
H         -3.59011       -0.40784        9.08708
H         -3.60079        1.28969        9.25167
