30

O          1.24816       -0.15915        0.08791
C          0.65614       -0.68201       -1.12426
C          1.16720        0.12576       -2.30296
C          2.10967       -0.36013       -3.22077
C          2.51079        0.41884       -4.30912
C          1.99676        1.70058       -4.48335
C          1.08238        2.21084       -3.56591
C          0.67186        1.42971       -2.48485
C          0.89773       -2.22036       -1.10885
O          0.36339       -2.74779        0.11975
C          0.33926       -3.05826       -2.24084
C         -0.61229       -2.58820       -3.15857
C         -1.03438       -3.39016       -4.22288
C         -0.53223       -4.67931       -4.37395
C          0.38559       -5.17657       -3.45273
C          0.81365       -4.37299       -2.39488
H          1.87526        0.54043       -0.16929
H         -0.42263       -0.50654       -1.02070
H          2.53277       -1.35695       -3.12599
H          3.22176        0.01723       -5.02787
H          2.30719        2.30075       -5.33456
H          0.68290        3.21297       -3.69649
H         -0.05103        1.84269       -1.78193
H          1.98143       -2.39077       -1.05513
H          0.59272       -2.07917        0.79551
H         -1.03289       -1.59035       -3.07608
H         -1.75724       -3.00265       -4.93709
H         -0.86132       -5.29931       -5.20315
H          0.76832       -6.18775       -3.55560
H          1.52653       -4.77785       -1.67774
