32

C          0.85356       -0.11882       -0.04480
C          0.36464       -1.15414       -1.04551
N          0.85443       -2.48202       -0.69025
C          0.11629       -3.33888        0.07416
N          0.57445       -3.81309        1.18254
C         -0.26764       -4.69311        1.84471
O          0.04938       -5.06409        2.97020
N         -1.44071       -5.18245        1.29620
C         -1.81744       -4.67943        0.16961
N         -2.93288       -5.02943       -0.53858
C         -3.96077       -6.02828       -0.22471
C         -5.31758       -5.30410       -0.21366
C         -3.95285       -7.06973       -1.35537
C         -3.78129       -6.75145        1.11326
N         -1.08289       -3.70771       -0.43115
H          0.49538       -0.34325        0.96512
H          0.49887        0.87848       -0.32270
H          1.94843       -0.09166       -0.01282
H         -0.72923       -1.13187       -1.10178
H          0.74542       -0.90069       -2.04035
H          1.78890       -2.41709       -0.28534
H         -3.15477       -4.47098       -1.35182
H         -5.51976       -4.81978       -1.17628
H         -6.14022       -5.99912       -0.01135
H         -5.33849       -4.52231        0.55450
H         -2.98549       -7.58251       -1.41088
H         -4.72837       -7.82916       -1.20370
H         -4.12966       -6.60214       -2.33102
H         -2.84713       -7.32296        1.14382
H         -3.79087       -6.05177        1.95622
H         -4.59525       -7.46660        1.28329
H         -1.20404       -3.55403       -1.41755
