28

N          1.84371        0.20466        0.08090
C          0.75307        0.47722       -0.66822
O         -0.26807       -0.17201       -0.59696
O          1.00384        1.52203       -1.47092
C          0.04178        2.00350       -2.44267
C         -0.61172        1.01279       -3.43144
N         -1.73899        0.23012       -3.00688
N         -1.65735       -1.11568       -2.89019
C         -2.92998       -1.38460       -2.58619
N         -3.76613       -0.31855       -2.73391
N         -2.99960        0.70496       -3.09080
C         -0.70129        3.25924       -1.99173
C         -0.26512        4.49614       -2.53128
C         -0.87902        5.70793       -2.20464
C         -1.95724        5.72125       -1.33388
C         -2.39283        4.52623       -0.76938
C         -1.76112        3.30878       -1.07285
Cl        -2.34131        1.94639       -0.19894
H          1.79090       -0.55688        0.74103
H          2.67908        0.75969       -0.00433
H          0.77521        2.42580       -3.14770
H         -0.95319        1.56848       -4.31633
H          0.15191        0.30475       -3.77829
H         -3.25043       -2.36851       -2.27702
H          0.58078        4.53525       -3.21731
H         -0.51238        6.63813       -2.63217
H         -2.44989        6.65626       -1.08102
H         -3.22942        4.54642       -0.07332
