43

C         -0.15389       -0.98018        1.10252
C          0.56581       -0.05078        2.06473
O          1.06631        1.05296        1.30054
C          2.29464        1.47298        1.75679
C          2.38464        2.19516        2.94681
C          3.63055        2.63996        3.37530
C          4.75953        2.39141        2.59383
C          4.65877        1.68043        1.38787
C          3.42822        1.19090        0.96498
N          3.18754        0.36504       -0.14830
C          3.96283       -0.34088       -1.03285
O          3.44041       -1.22083       -1.71490
C          5.45744       -0.07735       -1.19090
O          6.22750       -0.32332       -0.26874
N          5.95365        0.34424       -2.42246
C          5.31695        0.02463       -3.64371
C          5.91711       -0.98656       -4.41030
C          5.31411       -1.44432       -5.57986
C          4.11561       -0.88257       -6.00077
C          3.54161        0.16035       -5.27146
C          4.14700        0.65762       -4.10041
C          3.51892        1.84361       -3.40231
C          3.32978        3.05020       -4.31813
H         -0.92829       -0.44035        0.54735
H         -0.61320       -1.81780        1.63347
H          0.54536       -1.37949        0.35975
H         -0.13708        0.33208        2.81219
H          1.36424       -0.60497        2.57463
H          1.49655        2.40639        3.53412
H          3.72458        3.18685        4.31019
H          5.73304        2.74754        2.92547
H          5.57239        1.53827        0.82864
H          2.21226        0.09918       -0.24289
H          6.95228        0.16765       -2.40703
H          6.83136       -1.46947       -4.07394
H          5.76514       -2.25584       -6.14439
H          3.62529       -1.25302       -6.89730
H          2.60580        0.58526       -5.62867
H          2.54912        1.53910       -2.99137
H          4.13511        2.16894       -2.55804
H          2.61130        2.84638       -5.11878
H          2.94819        3.90154       -3.74552
H          4.27644        3.34665       -4.78237
