32

C          0.87680        0.00365       -0.10072
C          0.41995       -0.09901        1.34823
C          0.80645        1.11929        2.21311
C          0.28054        2.46445        1.65922
C         -1.23259        2.57255        1.52819
C          0.36836        0.93122        3.68496
C          0.97963       -0.27050        4.42278
C          2.51832       -0.32138        4.46388
C          3.11693        0.88766        5.18366
C          2.97603       -1.61158        5.14977
H          0.35227        0.80011       -0.63566
H          0.67036       -0.93526       -0.62489
H          1.95338        0.19284       -0.15948
H         -0.66381       -0.26085        1.37633
H          0.87787       -1.00233        1.76625
H          1.90059        1.20258        2.19511
H          0.63035        3.27618        2.30985
H          0.73239        2.65843        0.67943
H         -1.72879        2.47774        2.49804
H         -1.49955        3.55209        1.11756
H         -1.63617        1.81208        0.85414
H          0.59649        1.84386        4.24898
H         -0.72219        0.81755        3.72712
H          0.59522       -0.26226        5.45151
H          0.59807       -1.19633        3.97554
H          2.91016       -0.34421        3.44098
H          2.72996        0.97308        6.20466
H          4.20748        0.80291        5.24290
H          2.89204        1.81864        4.65455
H          2.59424       -2.48976        4.61805
H          4.06917       -1.67946        5.16045
H          2.62258       -1.66046        6.18507
