16

F          0.96039        0.01244       -0.10868
C          2.29972       -0.09148        0.03042
F          2.84161        1.11112       -0.23166
F          2.55899       -0.44112        1.30458
O          2.75169       -1.08201       -0.83928
C          4.12728       -0.92665       -1.00829
F          4.33680        0.09990       -1.85694
F          4.72837       -0.67943        0.16878
O          4.66702       -2.09119       -1.57522
C          6.08670       -2.04453       -1.66755
F          6.50422       -0.74984       -1.70249
Cl         6.76915       -2.82408       -0.20236
C          6.55110       -2.77867       -2.95751
F          6.17861       -4.08981       -2.92569
F          5.92280       -2.24468       -4.04503
Cl         8.30998       -2.69016       -3.23409
