22

O          5.07689        0.01914       -1.79120
C          4.79661       -0.12766       -0.61922
O          4.17931        0.80369        0.17096
C          3.96182        0.31672        1.50683
C          4.37062       -1.09781        1.42078
C          4.25637       -2.10610        2.35840
C          4.77436       -3.36448        2.03878
C          5.46498       -3.59163        0.82598
C          6.03889       -4.84173        0.54376
C          6.79541       -5.03891       -0.61292
C          6.97733       -3.99405       -1.51231
C          6.36841       -2.76130       -1.27886
C          5.60068       -2.54225       -0.11571
C          4.97757       -1.32861        0.19986
H          4.60697        0.88351        2.18566
H          2.91052        0.44253        1.77514
H          3.77285       -1.93717        3.31601
H          4.66721       -4.17259        2.76122
H          5.91668       -5.67288        1.23521
H          7.25389       -6.00568       -0.80471
H          7.59389       -4.13386       -2.39673
H          6.52829       -1.95968       -1.99818
