29

C          1.22667       -0.00990        0.03701
N          0.60385       -0.32048        1.34732
C         -0.88808       -0.20784        1.32102
C         -1.61541       -1.32267        0.56386
O         -1.58888       -2.55506        1.27160
S          1.34450       -1.63230        2.16332
O          0.96012       -2.81904        1.41780
O          2.75216       -1.28761        2.24566
C          0.62414       -1.64284        3.85868
F          0.96485       -0.50467        4.53391
F         -0.74012       -1.65869        3.83404
C          1.14494       -2.87303        4.56513
F          0.77365       -3.99910        3.89857
F          2.50365       -2.88211        4.59244
C          0.60743       -2.91971        5.97420
F          1.00482       -1.81819        6.67255
F         -0.75535       -2.88596        5.97315
C          1.09013       -4.17904        6.66722
F          0.66747       -5.30358        6.04455
F          2.43937       -4.24357        6.73864
F          0.62823       -4.24383        7.94157
H          0.79578        0.90557       -0.38055
H          1.06698       -0.82557       -0.67427
H          2.29997        0.16647        0.14939
H         -1.25460       -0.12936        2.34731
H         -1.13928        0.75134        0.85054
H         -2.66942       -1.04624        0.45833
H         -1.21191       -1.47689       -0.44129
H         -0.74181       -2.99665        1.03967
