9

O          1.02468       -0.17491       -0.42498
C          2.20836       -0.03478       -0.15030
O          2.89785       -0.96330        0.55213
C          3.05547        1.15846       -0.59152
O          2.71739        1.67305       -1.86766
H          3.85069       -0.77770        0.65364
H          2.92436        1.95659        0.14574
H          4.11208        0.87963       -0.61824
H          2.42617        0.92142       -2.41672
