25

O          0.94512       -0.26831       -1.08291
C          2.14317       -0.34089       -0.85000
O          2.83141       -1.49846       -0.96443
C          3.00417        0.80133       -0.36888
C          2.37263        2.17643       -0.60574
C          1.17906        2.50879        0.29800
O          1.62940        3.00966        1.56774
C          1.60051        2.07332        2.56497
C          0.38719        1.53836        3.00453
C          0.38014        0.55562        3.99841
Cl        -1.14872       -0.07451        4.49679
C          1.58870        0.11522        4.55345
Cl         1.66163       -1.14217        5.73561
C          2.79567        0.69582        4.15462
C          2.79713        1.69591        3.18431
Cl         4.30581        2.41238        2.74311
H          3.77962       -1.42440       -0.74288
H          3.23120        0.62630        0.68262
H          3.94575        0.76785       -0.92987
H          3.14933        2.93703       -0.45869
H          2.04823        2.23522       -1.65138
H          0.62470        3.33410       -0.16424
H          0.47318        1.67693        0.38674
H         -0.54921        1.88684        2.57508
H          3.73292        0.36757        4.59660
