21

O          0.98590       -0.17138       -0.21049
C          2.20068       -0.08584       -0.10868
O          3.03640       -0.80535       -0.88984
C          2.91434        0.80656        0.89057
C          2.46514        2.25948        0.69770
C          3.05535        3.18040        1.76243
C          2.74634        2.67936        3.16996
C          3.21936        1.24224        3.36685
C          2.63215        0.30830        2.31175
H          3.98444       -0.65986       -0.71621
H          3.99650        0.76162        0.71526
H          2.76254        2.61140       -0.29778
H          1.37001        2.32595        0.73324
H          2.65659        4.19315        1.63541
H          4.14210        3.24549        1.62803
H          1.66548        2.73616        3.34903
H          3.22750        3.33096        3.90786
H          2.93503        0.89401        4.36622
H          4.31461        1.20806        3.31609
H          1.54984        0.21925        2.47282
H          3.04616       -0.69906        2.44241
