30

C          0.82812        0.05679        0.36612
N          0.19859       -1.05792       -0.29241
C         -0.67025       -1.96274        0.24990
O         -1.12985       -2.86211       -0.44684
O         -0.92554       -1.76750        1.60365
C         -1.58943       -2.80806        2.27204
C         -1.16811       -4.14221        2.13771
C         -1.81563       -5.17660        2.83451
C         -2.87002       -4.88823        3.69650
C         -3.22736       -3.55926        3.83280
C         -2.61504       -2.52054        3.15649
O         -3.10261       -1.27011        3.45497
C         -4.14015       -1.46650        4.46341
C         -5.46430       -0.91860        3.94490
C         -3.71815       -0.78570        5.76209
C         -4.23082       -2.96424        4.67065
O         -4.97761       -3.58517        5.40603
H          0.53857        0.13547        1.41487
H          0.54022        0.96606       -0.16769
H          1.91138       -0.06993        0.28865
H          0.40659       -1.23299       -1.26697
H         -0.33946       -4.39431        1.47953
H         -1.48734       -6.20438        2.69784
H         -3.38407       -5.66703        4.24984
H         -6.28495       -1.12757        4.64043
H         -5.40698        0.16439        3.79152
H         -5.72173       -1.36290        2.97691
H         -2.74388       -1.15562        6.10184
H         -3.61478        0.29567        5.62312
H         -4.44312       -0.96663        6.56371
