17

O          0.84581        0.03033        0.19842
C          2.07030        0.00872        0.13155
N          2.76340       -1.17163        0.08211
C          4.11976       -1.32286        0.00138
O          4.65551       -2.42355       -0.02301
C          4.89622       -0.08086       -0.05705
C          6.28783       -0.09570       -0.17413
C          6.98562        1.11267       -0.23404
C          6.29441        2.32607       -0.17183
C          4.90372        2.33638       -0.05271
C          4.21499        1.12644       -0.00007
O          2.81872        1.18480        0.10424
H          2.21017       -2.01423        0.11178
H          6.82715       -1.03937       -0.22256
H          8.06926        1.10907       -0.33049
H          6.84207        3.26490       -0.21866
H          4.36534        3.27920       -0.00541
