44

N          2.32982       -1.50064        0.88992
C          1.02672       -0.99455        0.95334
C         -0.05218       -1.72077        0.44392
C         -1.35227       -1.20429        0.49933
C         -1.57556        0.03433        1.09581
O         -2.78258        0.64744        0.82257
P         -2.93068        2.27532        0.81521
S         -3.10850        3.02978        2.61800
O         -1.65369        2.79457       -0.05539
C         -1.06288        2.15580       -1.11519
C         -1.66436        1.16690       -1.88914
C         -0.87849        0.38893       -2.74771
C          0.49971        0.59598       -2.83570
N          1.28150       -0.18293       -3.69717
C          1.04487        1.71674       -2.20902
C          0.27198        2.48408       -1.33609
O         -4.18445        2.58816       -0.21568
C         -4.31985        3.92760       -0.54820
C         -3.55804        4.43192       -1.59792
C         -3.18655        5.77765       -1.57823
C         -3.64230        6.63134       -0.56913
N         -2.99722        7.85075       -0.34416
C         -4.53725        6.12984        0.38108
C         -4.91837        4.78649        0.36754
C         -0.53137        0.66333        1.77384
C          0.76227        0.14779        1.70453
H          2.48990       -2.08651        0.07671
H          3.03689       -0.77514        0.97429
H          0.11869       -2.67052       -0.05504
H         -2.16276       -1.73245        0.00661
H         -2.71910        0.92689       -1.79762
H         -1.34489       -0.41858       -3.30657
H          2.26807       -0.17341       -3.45459
H          0.93261       -1.13167       -3.80041
H          2.09093        1.97179       -2.35064
H          0.72932        3.30215       -0.78660
H         -3.11861        3.77148       -2.33878
H         -2.46004        6.13061       -2.30584
H         -3.50559        8.50900        0.23547
H         -2.56773        8.27293       -1.15904
H         -4.87146        6.75787        1.20337
H         -5.53853        4.40112        1.17276
H         -0.65833        1.59861        2.30690
H          1.56793        0.68562        2.19660
