22

C          0.56820       -0.03117       -0.02560
C          0.42453        1.24560       -0.84800
N          1.08913        1.14552       -2.14558
C          0.50366        2.00449       -3.18727
C          0.62167        3.52796       -3.04647
Cl         2.00738        4.17255       -3.96651
C          2.55981        1.07635       -2.13251
C          3.38327        2.16551       -1.42055
Cl         3.58399        1.87855        0.32669
H          0.17827       -0.89536       -0.57463
H         -0.00312        0.05770        0.90417
H          1.60574       -0.24359        0.24324
H         -0.65356        1.38875       -0.99916
H          0.76533        2.11646       -0.27901
H          0.87178        1.68156       -4.16961
H         -0.56930        1.76910       -3.22265
H         -0.27074        4.00673       -3.46169
H          0.71398        3.85044       -2.00579
H          2.85496        0.09518       -1.73875
H          2.89489        1.04860       -3.17799
H          4.39343        2.18431       -1.84202
H          2.95816        3.16164       -1.53522
