21

O          1.14760        0.20367       -0.09193
N          2.33147       -0.07541        0.11770
O          2.99761       -0.94268       -0.46630
C          3.01503        0.67638        1.15057
C          2.64477        0.41547        2.48781
C          3.30282        1.07951        3.52250
C          4.29650        1.97309        3.17827
C          4.64289        2.22325        1.86495
C          4.02035        1.59531        0.79843
C          4.42678        1.88540       -0.61512
O          5.35396        0.92436       -1.09513
O          5.64220        3.14492        1.77395
C          5.88854        3.43811        3.16357
O          5.03579        2.69830        4.05978
H          1.85979       -0.30235        2.71821
H          3.04903        0.90018        4.56194
H          3.55479        1.90079       -1.27809
H          4.88935        2.87433       -0.70029
H          5.15873        0.06043       -0.69177
H          6.93334        3.20011        3.39351
H          5.72581        4.50919        3.32894
