12

O          1.07199       -0.10121        0.28910
C          0.32037       -0.19437        1.41929
N         -0.71540       -1.01221        1.38910
C         -1.37397       -1.03099        2.53348
O         -2.46139       -1.84310        2.61851
N         -1.10639       -0.34896        3.63274
C         -0.03985        0.42037        3.49267
O          0.32521        1.16851        4.56839
N          0.73302        0.56099        2.42690
H          1.74343        0.53803        0.57315
H         -2.73111       -1.66206        3.53379
H          1.10547        1.62215        4.21186
