16

O          0.92450        0.22692        0.06201
C          2.13040        0.16746       -0.15236
N          2.97429        1.20637        0.10795
C          4.36310        1.25578       -0.09208
C          5.05021        2.35489        0.43587
C          6.43686        2.45672        0.30124
C          7.14454        1.46947       -0.37929
C          6.46506        0.38413       -0.92796
C          5.07833        0.27462       -0.78369
H          2.60370       -0.74231       -0.54479
H          2.51930        2.00331        0.53641
H          4.51976        3.13557        0.97536
H          6.96373        3.30481        0.73118
H          8.22372        1.54664       -0.48489
H          7.01489       -0.38049       -1.47151
H          4.59028       -0.57929       -1.24086
