10

C          1.00266       -0.06736        0.05697
C          0.31409        1.06773       -0.10728
C         -1.12681        1.11601       -0.11426
C         -1.81617        2.25087       -0.27848
H          0.51313       -1.02599        0.19568
H          2.08809       -0.05764        0.05556
H          0.85643        2.00126       -0.24236
H         -1.66899        0.18237        0.02083
H         -2.90159        2.24058       -0.27699
H         -1.32703        3.20969       -0.41722
