34

C          0.80567        0.14319       -0.09666
C          0.45479       -0.88722        0.95977
O          1.01621       -0.50819        2.22375
C          2.28270       -0.94342        2.44772
O          2.97857       -1.56551        1.65757
C          2.81107       -0.51601        3.76305
C          2.09395       -0.59670        5.08959
C          0.71053       -1.07893        5.23175
C         -0.16414       -0.75090        6.20573
C         -1.56062       -1.30810        6.23099
C          0.17511        0.19142        7.32772
C          3.23364       -1.55962        4.79507
C          2.97553       -3.02081        4.50170
C          4.54544       -1.32713        5.50566
H          0.45623        1.13576        0.20556
H          0.35006       -0.11465       -1.05679
H          1.88957        0.21484       -0.23183
H         -0.63153       -0.92973        1.08910
H          0.78022       -1.89114        0.66200
H          3.47432        0.33813        3.64911
H          2.32460        0.22816        5.76160
H          0.35235       -1.76250        4.46347
H         -1.73220       -1.85652        7.16322
H         -2.29262       -0.49633        6.16534
H         -1.74975       -1.99636        5.40092
H          1.04387       -0.16718        7.88921
H          0.38382        1.19391        6.93985
H         -0.65484        0.28312        8.03659
H          2.03648       -3.19951        3.96998
H          3.78274       -3.42421        3.88023
H          2.94441       -3.59527        5.43319
H          5.38118       -1.50662        4.82132
H          4.63341       -0.30323        5.88412
H          4.64670       -2.00649        6.35847
