42

C          2.55449        0.03950       -0.47646
C          1.10586       -0.24384       -0.07463
C          0.39758       -1.04909       -1.17029
C         -1.10843       -1.19000       -0.94568
C         -1.78450        0.19309       -0.77203
C         -3.34254        0.11745       -0.60534
C         -3.99214        1.41432       -1.10430
C         -4.00740       -1.07660       -1.29387
C         -1.13249        0.87630        0.46737
O         -1.45781       -0.02744        1.51455
C         -0.86169        0.02740        2.79786
C         -1.38223       -1.25232        3.49591
O         -2.73681       -1.48902        3.07477
C         -0.52528       -2.48195        3.13787
O          0.56921       -2.65301        4.04396
C          0.37128        1.06718        0.23798
H          3.10849       -0.89541       -0.61051
H          2.60284        0.59814       -1.41777
H          3.06746        0.62791        0.29147
H          1.13383       -0.85471        0.83445
H          0.55794       -0.57083       -2.14415
H          0.84498       -2.04861       -1.23230
H         -1.28673       -1.82353       -0.06681
H         -1.52763       -1.72563       -1.80234
H         -1.56153        0.78646       -1.66907
H         -3.59904        0.03464        0.45719
H         -3.83541        1.54453       -2.18045
H         -5.07250        1.40117       -0.92205
H         -3.58191        2.28869       -0.59022
H         -3.68304       -2.01987       -0.84129
H         -5.09633       -1.03280       -1.17865
H         -3.78176       -1.10266       -2.36402
H         -1.59633        1.85069        0.66220
H          0.23038        0.02436        2.74855
H         -1.20133        0.92329        3.32483
H         -1.39136       -1.11213        4.57916
H         -2.77706       -1.12466        2.16416
H         -1.12220       -3.39859        3.16236
H         -0.11066       -2.40678        2.12800
H          0.76725       -1.81429        4.46945
H          0.82655        1.53220        1.12104
H          0.51472        1.77397       -0.59010
