26

C         -0.00470        2.67067       -0.67995
N         -0.00137        1.28817       -0.19403
C         -1.25643        0.66206        0.00984
C         -2.43382        1.41127        0.21822
C         -3.67403        0.80022        0.43233
C         -3.77110       -0.58340        0.45143
C         -2.62553       -1.35140        0.26539
C         -1.37559       -0.74207        0.05555
S          0.01195       -1.83447       -0.18908
C          1.38743       -0.73027        0.07020
C          2.64024       -1.32891        0.29331
C          3.77717       -0.55115        0.49145
C          3.66848        0.83159        0.47126
C          2.42543        1.43203        0.24398
C          1.25676        0.67279        0.02316
H         -0.86700        2.87964       -1.32455
H         -0.01216        3.37482        0.15930
H          0.86256        2.88703       -1.31538
H         -2.40667        2.49675        0.24746
H         -4.55909        1.41080        0.59171
H         -4.73071       -1.06520        0.61710
H         -2.70982       -2.43584        0.28618
H          2.73358       -2.41259        0.31504
H          4.73905       -1.02472        0.66730
H          4.54654        1.44972        0.63999
H          2.38869        2.51723        0.27288
