36

C          0.94232       -0.11443        1.06602
O          0.75083       -1.19057        1.99245
C          1.35652       -2.34606        1.57075
C          0.53039       -3.45896        1.40486
C          0.99160       -4.56794        0.69009
C          2.28920       -4.55152        0.15664
C          2.50346       -4.97774       -1.28586
C          3.48021       -5.98625       -1.85698
C          3.67112       -5.50277       -3.30499
O          4.64717       -5.79238       -3.99305
C          2.65293       -4.54158       -3.84435
C          2.99671       -3.50745       -4.71037
O          4.23784       -3.40367       -5.27419
C          2.10775       -2.44517       -4.90777
C          0.86472       -2.43597       -4.26631
O          0.07147       -1.33603       -4.41711
C          0.48797       -3.46694       -3.41892
C          1.41863       -4.47021       -3.17292
O          1.25365       -5.17367       -1.99428
C          3.20026       -3.57178        0.60510
C          2.70510       -2.43353        1.22903
O          3.53090       -1.35331        1.35904
H          0.07026        0.54393        1.12423
H          1.02546       -0.45465        0.02461
H          1.82211        0.47496        1.34163
H         -0.51348       -3.40384        1.70211
H          0.27434       -5.32828        0.38486
H          2.91181       -4.00346       -1.61649
H          4.44102       -5.95884       -1.33642
H          3.08045       -7.00505       -1.87324
H          4.74141       -4.22248       -5.06981
H          2.40619       -1.59121       -5.51052
H         -0.71442       -1.42998       -3.85137
H         -0.43117       -3.43225       -2.84258
H          4.22460       -3.56705        0.23609
H          3.89112       -1.16761        0.47402
