25

O          1.21872       -0.03385       -0.05452
C          2.44778       -0.01199       -0.05890
O          3.15929       -0.78905        0.87622
C          4.53462       -0.58250        1.09743
C          5.39397       -1.65929        0.89274
C          6.75750       -1.49149        1.12612
C          7.24348       -0.26102        1.57356
C          6.36630        0.80200        1.80115
C          5.00051        0.64141        1.57404
N          3.18492        0.50420       -1.09349
C          3.72900       -0.28257       -2.08882
O          3.55293       -1.62104       -2.01948
N          4.38820        0.16821       -3.10615
C          4.52006        1.52778       -3.20018
C          4.01913        2.39156       -2.31931
F          4.16384        3.72343       -2.43721
C          3.29380        1.87387       -1.14268
O          2.90116        2.64450       -0.26892
H          5.01596       -2.62038        0.55709
H          7.44333       -2.32027        0.96678
H          8.30786       -0.13459        1.75895
H          6.74882        1.75166        2.16815
H          4.31926        1.46255        1.78262
H          2.98859       -1.92922       -1.29588
H          5.06525        1.89739       -4.06442
