19

C         -2.59083        0.53906       -0.00043
C         -1.22095       -0.07550       -0.00261
C         -1.10001       -1.47310        0.00057
C          0.15536       -2.08111       -0.00122
C          1.30968       -1.30069       -0.00575
C          1.22012        0.09642       -0.00730
C          2.46804        0.93242       -0.01331
C         -0.04835        0.69635       -0.00528
O         -0.08622        2.06546       -0.00605
H         -2.73424        1.14068        0.90283
H         -2.72524        1.16950       -0.88528
H         -3.37678       -0.22349       -0.01802
H         -1.98693       -2.10312        0.00401
H          0.23384       -3.16522        0.00068
H          2.28090       -1.78974       -0.00773
H          2.50433        1.55273       -0.91467
H          2.49884        1.57524        0.87238
H          3.36878        0.30961       -0.00200
H         -1.00777        2.36297        0.00807
