17

C          1.00656        0.13609       -0.15753
C          0.50387       -1.23734       -0.58051
C          0.97776       -2.34988        0.36100
C          0.49379       -2.27281        1.80792
O         -0.90953       -2.09271        1.95269
N          0.54948       -3.68843       -0.19771
O          1.41839       -4.56937       -0.24257
O         -0.61829       -3.81460       -0.58901
H          0.58803        0.43503        0.80810
H          0.71186        0.88861       -0.89590
H          2.09846        0.14799       -0.07999
H         -0.59007       -1.20914       -0.64930
H          0.86954       -1.44095       -1.59546
H          2.07550       -2.37577        0.35902
H          0.76695       -3.17930        2.35988
H          0.98079       -1.43538        2.31962
H         -1.18391       -1.26962        1.51450
