30

C          0.43351       -0.00970       -0.18357
O          0.46791       -1.35286        0.27322
P          1.04458       -2.49301       -0.89315
S          2.87082       -2.42970       -0.02083
O          0.07511       -3.61821       -0.14716
C         -0.49559       -3.39572        1.14131
S          1.75125       -3.89019       -2.32246
C          1.02275       -5.50491       -2.53706
C          1.89117       -6.60061       -1.91352
S          0.95659       -7.98015       -1.16190
C          0.22765       -7.21270        0.34088
C          1.20362       -6.31771        1.10308
C         -1.11167       -6.56145        0.00279
H         -0.35680        0.51960        0.35462
H          0.21904        0.02867       -1.25509
H          1.38997        0.47672        0.02268
H          0.25668       -3.06614        1.86483
H         -1.31601       -2.67501        1.06582
H         -0.92306       -4.32090        1.52291
H         -0.02512       -5.50741       -2.26146
H          1.02797       -5.67902       -3.62215
H          2.48018       -7.06498       -2.71496
H          2.63303       -6.23307       -1.19775
H         -0.00497       -8.04969        1.00322
H          1.56947       -5.47854        0.51577
H          0.73350       -5.90111        1.99957
H          2.07791       -6.88945        1.43760
H         -1.64460       -6.28091        0.91634
H         -1.02190       -5.66230       -0.59527
H         -1.76447       -7.25023       -0.54693
