23

C          1.15114       -0.08813        0.20590
O          0.69926       -1.21324        0.96295
C          0.78927       -2.38133        0.28701
O          1.25099       -2.57160       -0.82440
C          0.24885       -3.46177        1.12225
C          1.06458       -4.55437        1.45026
C          2.50890       -4.60936        1.14398
O          3.13961       -5.61719        0.88924
O          3.10476       -3.42133        1.32882
C          0.52213       -5.66371        2.12289
C         -0.82075       -5.67759        2.50155
C         -1.63144       -4.58203        2.21358
C         -1.09426       -3.48487        1.51894
N         -1.99760       -2.38940        1.20074
O         -2.74792       -2.00292        2.10723
O         -1.99264       -1.95575        0.04297
H          0.86602        0.82013        0.74344
H          0.67882       -0.06309       -0.78199
H          2.24108       -0.11267        0.11105
H          4.04669       -3.58052        1.10415
H          1.15339       -6.52084        2.35884
H         -1.23123       -6.54203        3.02060
H         -2.67917       -4.59824        2.51182
