31

C          0.80305        0.25898        0.26758
C          0.03222        0.29638       -1.01710
O         -1.00676       -0.31262       -1.20756
O          0.67194        1.09157       -1.92136
C          0.15915        1.02271       -3.25705
C          1.04815        0.16247       -4.18760
C          0.21018       -0.42451       -5.34113
C         -0.45167       -1.78092       -5.06359
C          0.29826       -2.68925       -4.13237
C         -0.19609       -4.10490       -4.01485
C          1.36653       -2.27869       -3.43312
C          1.94466       -0.89331       -3.48390
C          3.33018       -0.96479       -4.13511
H          0.53562       -0.65097        0.81248
H          0.56657        1.13667        0.87105
H          1.87670        0.21433        0.06201
H         -0.89336        0.72209       -3.28262
H          0.17420        2.05391       -3.63660
H          1.72655        0.89298       -4.65264
H         -0.56989        0.28710       -5.64461
H          0.86125       -0.53463       -6.21735
H         -1.46028       -1.62708       -4.66207
H         -0.57542       -2.28835       -6.03010
H          0.64028       -4.81268       -3.98263
H         -0.79439       -4.22723       -3.10665
H         -0.81747       -4.38410       -4.87202
H          1.86688       -2.98234       -2.76888
H          2.13670       -0.59457       -2.44974
H          3.81439        0.01776       -4.11416
H          3.98074       -1.65612       -3.58602
H          3.27557       -1.30154       -5.17493
