16

O          1.20557       -0.26069       -0.08787
N          2.35221        0.14787        0.10215
O          3.01926        0.87703       -0.63207
N          3.03694       -0.28133        1.20361
C          2.32154       -0.09465        2.42294
C          1.20439       -0.88481        2.73975
C          0.50833       -0.69310        3.93707
C          0.92402        0.28870        4.83352
Cl         0.06697        0.51651        6.30713
C          2.03069        1.08276        4.54847
C          2.72249        0.88913        3.35136
Cl         4.10194        1.88183        3.03065
H          3.94087        0.17807        1.26946
H          0.86837       -1.66428        2.05713
H         -0.35571       -1.31471        4.16116
H          2.35253        1.84473        5.25329
