9

N          1.20058       -0.13183       -0.00603
C          2.35136       -0.03352        0.07485
N          3.78208        0.03198        0.12873
C          4.45061        0.94325        0.87840
N          5.73635        1.01680        0.93891
S          3.60631        2.12512        1.85069
H          4.30555       -0.63159       -0.41717
H          6.17066        0.30334        0.35197
H          4.72500        2.69473        2.31930
