24

N          0.95826       -0.00843        0.35320
C          0.18786       -0.23714        1.45247
O         -1.03543       -0.21551        1.34752
N          0.93729       -0.47245        2.58336
N          0.22379       -0.68182        3.58755
C          1.00393       -0.93791        4.80847
C          0.69839        0.17461        5.81592
C          1.32690       -0.10663        7.17807
C          0.91389       -1.47392        7.71505
C          1.22766       -2.58519        6.71763
C          0.59742       -2.30967        5.35529
H          0.49413        0.17345       -0.52342
H          1.96297       -0.02269        0.41935
H          2.08333       -0.94423        4.60012
H          1.06521        1.13443        5.43235
H         -0.38767        0.28425        5.93410
H          1.03039        0.67317        7.88860
H          2.41958       -0.06268        7.09247
H         -0.16162       -1.47110        7.93152
H          1.42978       -1.67045        8.66154
H          0.86239       -3.54272        7.10561
H          2.31474       -2.67920        6.60523
H         -0.49545       -2.36833        5.44344
H          0.89221       -3.09401        4.64760
