7

O          1.06710       -0.22997        0.21246
N          2.25851        0.06344        0.03893
O          2.90492       -0.14248       -0.99816
C          2.99068        0.67289        1.19192
Cl         2.71161        2.41423        1.09211
H          2.58163        0.26585        2.11970
H          4.05509        0.44725        1.09210
