19

C          0.57754       -0.23696       -0.57310
N          0.38900        1.19109       -0.38263
C         -0.93754        1.59680        0.01667
O         -1.18696        2.90202       -0.45972
C         -0.19809        3.77580        0.06139
N          1.20137        3.38722       -0.08580
C          1.39501        2.11813       -0.26345
N          2.68150        1.70827       -0.47731
N          3.32410        1.28234        0.63873
O          4.48557        1.68593        0.72127
O          2.74835        0.50968        1.40828
H         -0.25141       -0.66346       -1.14883
H          0.61811       -0.75203        0.39157
H          1.49061       -0.46181       -1.13333
H         -1.04739        1.56141        1.10802
H         -1.70327        0.94180       -0.41310
H         -0.33560        4.73567       -0.44804
H         -0.41190        3.95820        1.12208
H          3.19860        2.48753       -0.86252
