7

C          0.99955       -0.03832       -0.10111
N          0.50354       -1.30518       -0.61512
Cl        -1.25927       -1.37154       -0.62562
H          0.66677        0.12651        0.92874
H          0.66834        0.80100       -0.72112
H          2.09380       -0.04622       -0.09782
H          0.86651       -1.45114       -1.55640
