40

O          1.76923        1.75972        0.23090
C          1.30922        0.62704        0.16859
O          2.10425       -0.46988        0.22297
C          1.55057       -1.69124        0.07356
C          2.60636       -2.71498        0.05377
C          2.61728       -3.64825       -0.98897
C          3.60968       -4.62790       -1.02982
C          4.56215       -4.69362       -0.00657
C          5.60150       -5.73179       -0.07608
N          6.30223       -5.94883       -1.13706
C          7.24581       -6.96927       -1.06370
C          8.09702       -7.19625       -2.14644
C          9.04596       -8.22046       -2.09835
C          9.14351       -9.02923       -0.96608
C          8.29967       -8.80493        0.12158
C          7.36107       -7.76764        0.06477
C          6.47724       -7.47504        1.20132
O          6.50987       -8.16308        2.21512
O          5.64878       -6.40802        1.09072
C          4.54262       -3.77114        1.04681
C          3.56765       -2.77034        1.07078
N          0.30074       -1.97197       -0.08023
C         -0.58775       -0.90114       -0.04684
C         -1.96035       -1.14538       -0.11650
C         -2.87023       -0.08546       -0.09151
C         -2.40968        1.22824       -0.00351
C         -1.03981        1.47960        0.07093
C         -0.13956        0.40745        0.05669
H          1.86422       -3.60683       -1.77306
H          3.63312       -5.34164       -1.85053
H          8.02091       -6.56682       -3.02970
H          9.70739       -8.38568       -2.94561
H          9.87887       -9.82965       -0.92979
H          8.37668       -9.43050        1.00827
H          5.28733       -3.81782        1.83810
H          3.55476       -2.04946        1.88511
H         -2.32017       -2.16900       -0.18585
H         -3.93770       -0.28720       -0.14118
H         -3.11720        2.05402        0.01176
H         -0.67737        2.50264        0.14486
