22

C         -1.95497       -0.00794       -0.31490
C         -1.25645       -1.10877       -0.01658
C          0.06268       -0.78381        0.60117
C          1.36171       -1.12064       -0.17781
C          1.28647       -0.61024       -1.60102
C          1.32240        0.72976       -1.54757
C          1.40943        1.11811       -0.08968
C          2.29761       -0.04169        0.39066
C          0.08471        0.78009        0.64696
C         -1.22685        1.25877        0.01508
H         -2.93957       -0.01702       -0.76349
H         -1.60224       -2.11940       -0.18588
H          0.11326       -1.18812        1.61977
H          1.72534       -2.14419       -0.07799
H          1.16557       -1.21768       -2.48475
H          1.23840        1.41152       -2.38014
H          1.81428        2.11370        0.09621
H          2.40243       -0.08725        1.48087
H          3.29751       -0.04566       -0.06258
H          0.15080        1.12041        1.68902
H         -1.07542        1.87318       -0.87716
H         -1.80809        1.84549        0.73419
