22

C          1.03988       -0.23128       -0.21439
C          0.48043       -0.83977        1.06047
C          1.13079       -0.34789        2.35794
O          0.30754       -0.83063        3.45509
C         -0.28178        0.18926        4.14918
O         -1.08086        0.08444        5.05799
C          0.26657        1.42514        3.61032
C          0.04086        2.72369        4.03432
C          0.74005        3.74491        3.38967
C          1.64863        3.44376        2.36203
C          1.85398        2.12178        1.95565
C          1.12994        1.11766        2.57929
H          0.72870        0.81304       -0.31906
H          0.65648       -0.76847       -1.08764
H          2.13245       -0.27795       -0.23673
H         -0.60405       -0.67262        1.09073
H          0.60165       -1.93011        1.01513
H          2.13650       -0.76242        2.48759
H         -0.64906        2.93430        4.84522
H          0.59131        4.77929        3.69133
H          2.20012        4.24789        1.87873
H          2.56773        1.89864        1.16803
