54

C          0.82128       -0.53590        1.10431
C          0.51506        0.65373        1.65373
C          1.36363        1.14768        2.76212
C          1.72524        0.33473        3.84418
C          2.49534        0.85184        4.88820
C          2.91660        2.18327        4.86045
C          2.56021        3.00235        3.78940
O          2.90265        4.32169        3.79996
C          1.78949        2.48333        2.74900
C          1.25853        3.30993        1.64825
O          1.95051        4.07234        0.98382
C         -0.21935        3.10864        1.43285
C         -0.82241        4.01803        0.40383
O         -1.61633        4.90052        0.73243
C         -0.59982        3.61108       -1.04424
O          0.70832        3.09941       -1.25647
C         -0.78475        4.77995       -2.02470
O         -0.40742        5.92190       -1.74471
C         -1.25575        4.47629       -3.42077
C         -0.12373        4.24663       -4.38496
N         -0.37153        4.57048       -5.68656
O          0.95323        3.75557       -4.06839
C         -2.19763        3.31133       -3.42651
O         -3.31359        3.44291       -3.93117
C         -1.68084        2.03875       -2.71126
N         -2.40443        0.85509       -3.21715
C         -1.69460       -0.40770       -3.02507
C         -3.81356        0.72134       -2.87090
C         -1.60539        2.43537       -1.19979
C         -1.13646        1.28397       -0.26815
O         -2.22597        0.37158       -0.06532
C         -0.58558        1.62611        1.16896
H          0.26303       -0.96425        0.27772
H          1.66285       -1.13504        1.44380
H          1.38971       -0.69929        3.89644
H          2.75193        0.21704        5.73376
H          3.49374        2.56921        5.69611
H          3.50789        4.49962        4.53847
H         -0.68311        3.40846        2.38650
H          1.35826        3.80869       -1.04107
H         -1.82305        5.35741       -3.75113
H          0.36263        4.39794       -6.36307
H         -1.25331        4.93972       -6.02025
H         -0.65476        1.91356       -3.07877
H         -1.87934       -0.86413       -2.05003
H         -2.01538       -1.13042       -3.78355
H         -0.61208       -0.29406       -3.14903
H         -3.99018        0.68586       -1.79422
H         -4.42450        1.52414       -3.28880
H         -4.22339       -0.19912       -3.30641
H         -2.61148        2.75790       -0.89104
H         -0.36794        0.74099       -0.82554
H         -2.92824        0.81602        0.44175
H         -1.41844        1.43012        1.86413
