45

C          0.93549       -0.04212        0.36240
C          0.57036       -1.14214       -0.66423
C          1.18696       -2.43663       -0.09295
C         -1.03123       -1.22679       -0.76548
C         -1.86185       -0.93842        0.50591
C         -1.88113       -2.07968        1.50708
C         -2.36891       -3.37922        0.87461
O         -2.13510       -4.45329        1.78387
C         -1.72037       -3.71150       -0.46904
C         -1.57826       -2.51777       -1.41652
C          1.13321       -0.81139       -2.14784
C          2.05356       -1.85248       -2.82641
C          3.50854       -1.78692       -2.37835
C          4.10254       -0.39039       -2.52846
O          5.37317       -0.35356       -1.88227
C          3.21764        0.71199       -1.95409
C          1.75410        0.58841       -2.37271
H          0.57523       -0.29512        1.36585
H          0.51031        0.93042        0.09920
H          2.01497        0.05949        0.48016
H          0.72302       -2.73738        0.84659
H          1.11060       -3.28446       -0.77510
H          2.24392       -2.29910        0.14904
H         -1.31122       -0.40282       -1.44033
H         -2.89990       -0.75263        0.19346
H         -1.55273       -0.00851        0.99245
H         -2.54719       -1.82140        2.34053
H         -0.90197       -2.20723        1.97676
H         -3.45351       -3.31267        0.73267
H         -1.17447       -4.51746        1.92664
H         -0.75455       -4.19720       -0.30699
H         -2.32108       -4.48688       -0.96309
H         -2.57915       -2.29300       -1.81136
H         -0.97630       -2.80556       -2.28512
H          0.24490       -0.80577       -2.79599
H          2.03756       -1.65586       -3.90880
H          1.65956       -2.86792       -2.72829
H          4.10335       -2.49094       -2.97450
H          3.62582       -2.13335       -1.34921
H          4.27764       -0.18942       -3.59146
H          5.23117       -0.53908       -0.93580
H          3.32152        0.73983       -0.86750
H          3.60560        1.68399       -2.28550
H          1.70855        0.80183       -3.45082
H          1.15091        1.37451       -1.90864
