36

O          1.03353        0.13128       -0.51085
C          2.24008        0.04142       -0.32044
O          2.92211        1.00315        0.35029
C          3.11910       -1.11356       -0.79195
N          2.46090       -2.43326       -0.64895
C          1.58027       -2.98754       -1.61483
S          0.43878       -4.19090       -1.27480
S          1.66031       -2.21132       -3.21061
C          1.16754       -3.49045       -4.39459
C          2.10395       -4.66988       -4.52059
C          1.57850       -5.97240       -4.53560
C          2.41273       -7.07926       -4.70266
C          3.78376       -6.89975       -4.86403
C          4.31923       -5.61365       -4.86839
C          3.48451       -4.50494       -4.70814
C          2.69315       -3.07563        0.61265
C          3.22194       -4.37209        0.64908
C          3.48048       -4.99505        1.87268
C          3.21279       -4.32927        3.06741
C          2.69692       -3.03607        3.04117
C          2.44796       -2.40676        1.81961
H          3.87393        0.82776        0.47784
H          3.41916       -0.90951       -1.82216
H          4.04897       -1.13509       -0.20990
H          0.14411       -3.81535       -4.17910
H          1.11622       -3.01189       -5.38023
H          0.50857       -6.13620       -4.41779
H          1.98958       -8.08059       -4.71033
H          4.43288       -7.76152       -4.99429
H          5.38805       -5.47276       -5.00585
H          3.92287       -3.51013       -4.73861
H          3.45045       -4.90416       -0.27149
H          3.88325       -6.00446        1.89211
H          3.39392       -4.82277        4.01893
H          2.46581       -2.52300        3.97157
H          1.99622       -1.41949        1.83903
