126

C          0.20693        0.33213        0.11551
C         -0.57102       -0.94098       -0.22665
C         -0.02110       -2.23740        0.42285
C         -0.18246       -2.35900        1.92309
O         -0.39557       -3.36618        2.58655
O          0.18235       -1.24139        2.57962
C         -0.30428       -3.46796       -0.50709
O          0.86083       -3.77285       -1.32802
C          1.88506       -4.61103       -0.73924
C          2.85318       -3.74504        0.16978
C          3.92219       -4.64459        0.80134
C          3.37447       -2.48344       -0.69072
O          2.31138       -1.67053       -1.20827
C          4.49120       -1.49935       -0.27394
C          5.29495       -1.79421        0.96652
C          5.30238       -0.95036       -1.50558
O          4.90492        0.13223       -1.97862
C          6.61753       -1.55765       -2.15458
C          7.91203       -1.22933       -1.37177
C          8.31825       -2.17059       -0.26574
C          6.69396       -2.69206       -3.28576
O          8.00779       -2.67096       -3.89268
C          8.61196       -3.89189       -4.34671
C          7.82304       -4.60638       -5.46811
C          7.81458       -4.11765       -6.71049
C          9.21198       -3.86518       -7.19374
O          9.01100       -3.33911       -8.49092
C          9.95819       -2.93487       -6.15604
C          9.40950       -1.49368       -6.21296
C         10.44932       -0.74880       -7.02672
C         11.74292       -1.42837       -6.59315
C         12.13260       -0.92199       -5.17875
C         12.93975       -1.15469       -7.57899
C         14.27873       -1.80800       -7.22090
C         14.42431       -3.21252       -7.76493
C         14.11880       -3.32666       -9.26260
O         13.96009       -4.73951       -9.53685
C         15.29630       -2.92107      -10.18394
C         15.58139       -1.44090      -10.38267
C         12.83793       -2.54264       -9.63902
C         11.57749       -3.36942       -9.57670
O         12.65354       -1.28470       -8.97722
O         11.37798       -2.82363       -6.50890
O          9.92129       -3.56557       -4.84249
C          8.67289       -4.94863       -3.19309
C          9.80248       -4.84996       -2.17761
C          7.31537       -5.06258       -2.49063
C          6.26849       -4.15324       -3.11050
C          4.97837       -4.34349       -2.43372
C          1.23422       -5.95167       -0.29939
C          2.13596       -7.09367        0.16792
C          0.06333       -5.71280        0.65850
C         -0.94179       -4.78245       -0.03086
C         -2.28269       -4.61419        0.67375
H         -0.04085        0.70298        1.11156
H         -0.03828        1.12342       -0.60066
H          1.29022        0.18253        0.06974
H         -1.62859       -0.80944        0.01753
H         -0.50134       -1.03751       -1.31954
H          1.04267       -2.07585        0.40377
H          0.23554       -1.51418        3.51855
H         -1.01966       -3.10627       -1.25799
H          2.50244       -4.90151       -1.59726
H          2.28853       -3.36584        1.02232
H          4.41965       -5.29207        0.07712
H          4.68318       -4.11064        1.35731
H          3.46718       -5.28387        1.56112
H          3.67651       -2.87015       -1.62447
H          1.70858       -2.26859       -1.70022
H          3.93570       -0.59792        0.04281
H          5.94997       -2.65210        0.83196
H          5.91095       -0.93057        1.23911
H          4.63261       -1.97727        1.82190
H          6.74278       -0.72205       -2.88178
H          8.74657       -1.16593       -2.08354
H          7.83173       -0.21937       -0.94486
H          8.00270       -3.19062       -0.45899
H          9.40586       -2.15667       -0.14365
H          7.91054       -1.85150        0.69296
H          6.02911       -2.30223       -4.07360
H          8.11462       -5.66304       -5.47753
H          7.19435       -3.23220       -6.87106
H          9.76302       -4.81231       -7.28256
H          8.79911       -4.10217       -9.05820
H          8.42611       -1.40708       -6.68422
H          9.30917       -1.05143       -5.21822
H         10.43469        0.32931       -6.83902
H         10.25406       -0.90587       -8.09306
H         12.92444       -1.52852       -4.73259
H         12.46221        0.12338       -5.21508
H         11.30546       -0.97271       -4.46438
H         13.11735       -0.07436       -7.47434
H         15.08200       -1.19140       -7.63359
H         14.45913       -1.81253       -6.14292
H         13.75441       -3.87243       -7.19776
H         15.43193       -3.59282       -7.55583
H         13.35369       -5.11096       -8.87240
H         16.21215       -3.42473       -9.84999
H         15.09738       -3.34611      -11.17936
H         16.01866       -0.98742       -9.49300
H         16.30483       -1.31794      -11.19581
H         14.68926       -0.87646      -10.66646
H         12.90431       -2.28216      -10.70308
H         10.72728       -2.71125       -9.75855
H         11.56050       -4.15664      -10.33604
H         11.48143       -3.85844       -8.60985
H          8.86519       -5.93658       -3.63835
H          9.64870       -5.59536       -1.38403
H         10.76179       -5.08702       -2.64632
H          9.87059       -3.86765       -1.71659
H          7.38601       -4.88456       -1.41505
H          6.95973       -6.09857       -2.58322
H          6.03715       -4.53787       -4.10823
H          4.23169       -3.79501       -3.01802
H          4.65165       -5.38245       -2.39594
H          5.13986       -3.99486       -1.41818
H          0.78131       -6.35074       -1.22263
H          1.58656       -8.04330        0.12200
H          3.01034       -7.20465       -0.48148
H          2.45978       -6.99023        1.20451
H          0.43554       -5.31361        1.60320
H         -0.42420       -6.66955        0.88647
H         -1.20111       -5.32719       -0.95499
H         -3.05952       -4.40863       -0.07225
H         -2.56971       -5.52541        1.20605
H         -2.31574       -3.78174        1.37394
