26

C          1.05736        0.02154       -0.25628
C          0.40075       -0.95415       -1.23431
C          0.99854       -2.34519       -1.02951
C         -0.09460       -3.28396       -1.49214
C         -1.35583       -2.52730       -1.16287
O         -2.45903       -3.05735       -1.13286
N         -1.02162       -1.16804       -1.02942
C         -1.98800       -0.12692       -0.98148
C         -3.23379       -0.33410       -0.37507
C         -4.18312        0.69071       -0.30604
C         -3.90627        1.93745       -0.85734
C         -2.68064        2.15801       -1.47752
C         -1.72869        1.13424       -1.53565
H          0.82402       -0.24169        0.78181
H          0.72865        1.05203       -0.40929
H          2.14629        0.00913       -0.37415
H          0.55757       -0.63473       -2.27205
H          1.93521       -2.48542       -1.57770
H          1.20383       -2.53305        0.03272
H         -0.05990       -4.23963       -0.96355
H         -0.05327       -3.44857       -2.57345
H         -3.48017       -1.28876        0.08305
H         -5.13738        0.50821        0.18127
H         -4.64625        2.73164       -0.80878
H         -2.46547        3.12460       -1.92554
H         -0.80121        1.33797       -2.06124
