35

O          1.18422        0.29343       -0.37625
C          0.80760       -1.07465       -0.23499
C          1.10049       -1.88897       -1.51436
O          1.68049       -3.17753       -1.21211
C          0.74917       -4.17470       -0.73637
O          0.17174       -3.70509        0.48408
C         -0.44095       -4.54626        1.36114
C         -1.03801       -3.88656        2.44180
C         -1.83542       -4.58553        3.34540
C         -2.03475       -5.94504        3.16550
O         -2.88473       -6.58057        4.01939
C         -1.39613       -6.62721        2.13400
C         -0.57821       -5.92537        1.24118
C         -0.28500       -4.43103       -1.86074
O         -1.21173       -5.47932       -1.57216
C         -1.04698       -3.14664       -2.19178
O         -1.95113       -2.77349       -1.13696
C         -0.07397       -2.00735       -2.51458
O         -0.79099       -0.78715       -2.67979
H          2.15496        0.32053       -0.44146
H          1.35938       -1.46998        0.62387
H         -0.25484       -1.08473        0.01989
H          1.89097       -1.34202       -2.04486
H          1.34204       -5.07574       -0.54487
H         -0.90470       -2.81486        2.56818
H         -2.31931       -4.06367        4.16645
H         -3.05217       -7.47566        3.68234
H         -1.53411       -7.69494        1.99773
H         -0.10498       -6.48537        0.43988
H          0.26783       -4.74042       -2.75661
H         -1.97143       -5.07117       -1.11017
H         -1.69993       -3.32135       -3.05479
H         -1.49309       -2.85394       -0.27856
H          0.37009       -2.24525       -3.48996
H         -1.55546       -0.81949       -2.06989
