8

Cl         0.90186        0.00564       -0.00305
C          2.69691       -0.05745       -0.00319
Cl         3.25855        1.03138        1.31028
C          3.21838       -1.49054        0.18035
Cl         2.65674       -2.57937       -1.13311
Cl         5.01343       -1.55363        0.18022
H          3.03604        0.37517       -0.94961
H          2.87925       -1.92316        1.12678
