67

C          0.38708        0.05399       -0.18150
O          0.44879       -0.38851        1.17531
C          0.92385       -1.66695        1.32268
C          0.06659       -2.52904        2.01047
C          0.45675       -3.83761        2.28774
C          1.69873       -4.30046        1.85146
C          2.56872       -3.44565        1.15939
C          2.20102       -2.11704        0.94214
C          3.24250       -1.18331        0.51213
O          3.14658       -0.00300        0.84554
C          4.50205       -1.67729       -0.09984
C          5.41099       -0.67077       -0.45060
O          5.05722        0.60408       -0.73968
C          6.72838       -1.01866       -0.37474
C          7.18902       -2.65732       -0.32053
C          6.17957       -3.58953       -0.20811
O          6.53523       -4.89743       -0.07274
C          4.86680       -3.06922        0.04475
C          3.88063       -3.96375        0.70444
O          4.16567       -5.14780        0.87848
C          9.04805       -3.19203       -0.33452
C         10.47317       -1.81080       -0.25449
O         11.33549       -2.11689       -1.41472
C         11.56326       -1.87666        0.91166
C         11.23396       -2.20319        2.35156
O         12.74852       -1.64116        0.62567
C          9.87776        0.05442       -0.41922
C          7.94931        0.41910       -0.28071
O          7.52850        1.16074        0.87108
C          8.26166        0.75595        1.99330
C          7.43071        0.31343        3.18906
C          6.77170       -1.04986        3.02619
N          5.36796       -0.95140        2.64604
C          7.63448       -2.01307        2.17454
O          7.09923       -3.33063        2.23769
C          8.56294       -1.35422        0.84229
C          8.61023       -1.37368       -1.27451
O          9.17517       -0.25113        1.63419
H         -0.23216        0.95602       -0.20586
H         -0.07521       -0.69770       -0.82867
H          1.36390        0.33571       -0.58003
H         -0.90107       -2.16631        2.35076
H         -0.20487       -4.49286        2.84940
H          1.99840       -5.32110        2.08347
H          5.43014        1.17845       -0.04456
H          5.75952       -5.36309        0.32103
H          9.19181       -3.74697       -1.27745
H          9.19471       -3.89969        0.49141
H         12.24749       -2.25637       -1.07919
H         12.16372       -2.38266        2.90056
H         10.74508       -1.36962        2.85767
H         10.63833       -3.11487        2.41894
H         10.45043        0.69994        0.26388
H         10.17731        0.40967       -1.42245
H          7.70540        1.06939       -1.13871
H          8.84667        1.62357        2.31307
H          8.11956        0.21315        4.04014
H          6.69323        1.07305        3.46840
H          6.72054       -1.51406        4.02290
H          4.79286       -0.76315        3.46770
H          5.20420       -0.14278        2.04374
H          8.46139       -2.15502        2.89368
H          7.65262       -3.96388        1.75338
H          9.27564       -2.08228        1.16988
H          9.53242       -1.34532       -1.88179
H          8.16698       -2.18814       -1.91495
H          8.14649       -0.56950       -1.90201
