69

O         -0.46582        0.37984        3.10297
C          0.48114       -0.56777        3.65423
C          1.87166       -1.11170        3.23764
C          3.04998       -0.72278        3.82300
C          3.18067       -0.51852        5.30455
N          2.83275        0.84332        5.99380
C          3.03332        2.46257        5.46832
C          3.56574        2.23040        4.13703
C          2.15450        1.75386        3.61000
C          0.79489        1.71196        4.93663
O         -0.43955        2.34256        4.63872
C          1.62716        2.23975        2.30487
O          0.85864        1.25646        1.27544
C         -0.14629       -0.07240        0.91624
O         -0.21219       -1.44391        1.59459
C         -1.43068       -1.93280        2.38678
C         -1.08146       -2.74810        3.76313
O         -1.89037       -2.43944        4.90771
C         -2.62876       -0.94970        2.55284
O         -2.77491       -0.32438        3.85455
C         -2.70569        0.16737        1.48874
O         -2.83265        1.46408        2.11015
C         -1.58537        0.24323        0.43056
O         -1.64682        1.47472       -0.28161
C          1.32801        3.63344        2.97478
O         -0.02673        3.97124        2.75590
C          1.94058        3.81733        4.71107
O          0.89916        4.33767        5.55078
C          2.65124       -2.09455        5.61758
O          1.36720       -2.15165        6.25750
C          2.60157       -3.14726        4.25160
O          3.91285       -3.65303        3.96040
C          2.02177       -2.53162        2.89552
O          2.95607       -2.60681        1.80261
H         -0.06406        1.04920        2.51407
H          1.06066        0.26208        3.84927
H          0.07631       -0.83817        4.60144
H          3.98721       -1.11947        3.42507
H          4.25221       -0.59712        5.51505
H          2.25944        0.75200        6.83563
H          3.62327        2.94805        6.25293
H          3.97591        3.13630        3.68032
H          4.38458        1.50328        4.16656
H          2.53400        0.92187        3.09525
H          0.60117        0.74004        5.40442
H          1.03504        2.16109        5.90563
H         -0.79784        1.93217        3.83037
H          2.51273        2.43141        1.67089
H          0.39071       -0.35548       -0.00330
H         -1.80135       -2.74350        1.74688
H         -1.10001       -3.82991        3.61455
H         -0.06912       -2.62155        4.11673
H         -1.28845       -2.32298        5.67887
H         -3.53444       -1.56596        2.49173
H         -2.65719       -1.02846        4.52903
H         -3.65220        0.01984        0.95379
H         -2.78120        1.26806        3.07465
H         -1.83858       -0.55711       -0.28162
H         -1.87792        2.13668        0.40501
H          1.93476        4.37732        2.44234
H         -0.24738        4.67508        3.38660
H          2.64810        4.65066        4.62875
H          0.08958        3.80134        5.36277
H          3.37835       -2.53879        6.30764
H          1.29597       -3.06614        6.59755
H          1.95702       -3.99743        4.50541
H          4.00533       -3.55275        2.98196
H          1.13693       -3.06084        2.55763
H          2.73761       -1.85046        1.21618
