40

C          2.95784        0.15292       -0.04068
C          1.45725        0.11756       -0.07237
C          0.73797        1.30599       -0.16280
C         -0.65875        1.27433       -0.10221
N         -1.35637        2.50606       -0.11172
N         -2.36304        2.76925        0.75878
C         -2.73418        4.01074        0.42533
C         -3.75576        4.80659        0.96987
C         -3.92455        6.04982        0.32975
C         -3.13001        6.46658       -0.77348
Cl        -3.48288        7.99557       -1.49877
C         -2.07563        5.70667       -1.30897
C         -1.88405        4.46835       -0.67257
N         -0.94907        3.53616       -0.89949
C         -1.35002        0.04825       -0.03393
O         -2.71292        0.11841       -0.13268
C         -0.65331       -1.18398       -0.00096
C         -1.33791       -2.57476       -0.04251
C         -2.16793       -2.82416        1.23637
C         -2.21938       -2.70675       -1.30702
C         -0.33893       -3.76460       -0.12019
C          0.76089       -1.09994        0.01452
H          3.34403        0.69563       -0.90922
H          3.30052        0.64685        0.87454
H          3.38569       -0.85476       -0.06001
H          1.26616        2.25619       -0.22319
H         -4.36358        4.48261        1.80414
H         -4.70786        6.71370        0.69597
H         -1.46898        6.02955       -2.14334
H         -3.12294       -0.68324        0.21089
H         -2.99361       -2.12494        1.37620
H         -2.61373       -3.82619        1.22315
H         -1.53651       -2.75413        2.12997
H         -1.62666       -2.53305       -2.21380
H         -2.65169       -3.71158       -1.38360
H         -3.05898       -2.00899       -1.33204
H          0.29946       -3.70175       -1.00933
H          0.30412       -3.81312        0.76648
H         -0.86959       -4.72329       -0.17632
H          1.36845       -1.99979        0.07156
