45

C          1.26740       -0.06897        0.04655
C          0.64712        0.83068       -0.98646
O         -0.21880        0.42628       -1.75958
C          1.07024        2.25559       -1.03276
C          2.35951        2.66079       -0.68229
C          2.71790        4.00707       -0.79895
C          1.79471        4.95048       -1.27068
C          0.48438        4.55662       -1.60990
C          0.14352        3.19977       -1.48981
N         -0.41417        5.46694       -2.20303
C         -1.81184        5.49231       -1.71213
C         -2.15494        6.70297       -0.81817
C         -2.41600        8.06420       -1.49075
N         -3.70395        8.31735       -2.16561
C         -3.58153        9.50663       -3.01895
C         -4.26186        7.21671       -2.93435
C          0.03062        6.51103       -3.03542
C         -0.69560        6.87601       -4.17942
C         -0.28916        7.94032       -4.98470
C          0.86194        8.65142       -4.66299
C          1.63533        8.26350       -3.56845
C          1.24542        7.17605       -2.77620
S          2.31393        6.65870       -1.43495
H          0.76752       -1.04239        0.01687
H          1.11959        0.35692        1.04262
H          2.32841       -0.22388       -0.15835
H          3.11096        1.94699       -0.35805
H          3.73189        4.31238       -0.54925
H         -0.83567        2.85614       -1.81823
H         -2.50031        5.37219       -2.54859
H         -1.99956        4.61510       -1.07902
H         -3.04003        6.45257       -0.21807
H         -1.33930        6.83935       -0.09452
H         -2.36584        8.80956       -0.68382
H         -1.57922        8.31923       -2.14158
H         -2.83868        9.36523       -3.81334
H         -4.53813        9.75015       -3.49455
H         -3.29076       10.38088       -2.42685
H         -3.60366        6.89135       -3.74290
H         -4.49757        6.36633       -2.28734
H         -5.21435        7.50787       -3.39236
H         -1.57861        6.31244       -4.46346
H         -0.87449        8.21020       -5.85971
H          1.17140        9.49230       -5.27779
H          2.54911        8.80764       -3.34379
