40

C          1.58600       -0.02186        0.27798
C          0.58850        0.37746       -0.77277
C         -0.52101       -0.60815       -1.02401
C          0.69238        1.51109       -1.49530
C          1.83685        2.48754       -1.46991
C          2.90772        2.13725       -2.51832
C          2.60207        2.57888       -3.93814
C          3.08286        3.96007       -4.31470
C          2.00080        1.83350       -4.88857
C          1.43356        0.44199       -4.80507
C         -0.10058        0.35730       -4.74229
C         -0.93035        1.51646       -5.31613
C         -1.32561        1.08382       -6.71936
C         -1.63076       -0.39851       -6.58177
C         -0.61729       -0.81765       -5.55037
O         -0.28973       -1.98109       -5.35706
H          1.33919       -0.99655        0.71244
H          1.58400        0.70554        1.09680
H          2.59463       -0.09470       -0.13902
H         -1.35225       -0.16317       -1.58008
H         -0.13461       -1.45122       -1.60914
H         -0.92602       -0.99722       -0.08540
H         -0.07644        1.74982       -2.22541
H          1.44933        3.50138       -1.62745
H          2.30042        2.49279       -0.47645
H          3.84784        2.61361       -2.20813
H          3.12862        1.06352       -2.49362
H          3.59832        3.94139       -5.28225
H          2.23786        4.65264       -4.37965
H          3.79356        4.36097       -3.58557
H          1.89613        2.27807       -5.87983
H          1.81258       -0.11723       -5.67028
H          1.84055       -0.08855       -3.93584
H         -0.41896        0.18613       -3.71368
H         -0.43046        2.48774       -5.31204
H         -1.83838        1.63763       -4.70996
H         -0.48816        1.23762       -7.40989
H         -2.18554        1.64611       -7.09561
H         -1.49661       -0.93559       -7.52208
H         -2.63416       -0.56463       -6.17756
