22

O          3.13228        1.06476       -0.01246
C          2.00168        0.59203       -0.00114
N          1.78359       -0.75262        0.02395
C          0.56165       -1.37019        0.03368
O          0.44007       -2.58813        0.04970
C         -0.62183       -0.48421        0.02356
C         -1.90579       -1.04485        0.03953
C         -3.01935       -0.20049        0.03157
N         -4.37181       -0.77738        0.05153
O         -4.46981       -2.01049        0.05169
O         -5.32657        0.00978        0.06715
C         -2.85728        1.19192        0.00600
C         -1.56023        1.74281       -0.01058
N         -1.43597        3.21030       -0.03625
O         -2.48020        3.87377       -0.01040
O         -0.29840        3.69827       -0.08210
C         -0.42801        0.90410       -0.00100
N          0.89242        1.38489       -0.01335
H          2.60232       -1.34351        0.03098
H         -2.01955       -2.12926        0.05904
H         -3.73393        1.84112       -0.00075
H          1.07321        2.39005       -0.03487
