27

O          0.81258        0.04109        0.03737
C          2.03497       -0.03129        0.03772
C          2.80230        1.23257        0.03795
C          2.12222        2.45900        0.03788
C          2.83524        3.65932        0.03809
C          4.22874        3.64163        0.03834
C          4.90960        2.42366        0.03841
C          4.19248        1.21938        0.03824
C          4.91588       -0.05984        0.03840
O          6.14415       -0.08484        0.03866
C          4.16589       -1.32967        0.03830
C          4.86651       -2.54448        0.03858
O          6.23706       -2.63894        0.03900
C          4.17304       -3.74979        0.03847
O          4.85740       -4.93108        0.03876
C          2.78895       -3.77530        0.03807
C          2.08633       -2.56749        0.03781
O          0.72130       -2.61960        0.03746
C          2.76399       -1.33141        0.03793
H          1.03326        2.48349        0.03768
H          2.30120        4.60711        0.03805
H          4.78515        4.57641        0.03848
H          5.99819        2.41869        0.03862
H          6.60130       -1.72213        0.03901
H          5.80319       -4.67490        0.03904
H          2.27842       -4.73338        0.03797
H          0.41320       -3.54022        0.03762
