19

C          0.85276       -0.12279        0.10152
C          0.55941        0.73707       -1.11289
O          1.06740        0.10958       -2.30184
C          2.36610        0.37441       -2.60786
O          3.12335        1.05700       -1.93234
C          2.74322       -0.22998       -3.92392
C          2.24858       -1.63885       -4.12573
O          1.60780       -1.93923       -5.13746
C          2.57837       -2.67881       -3.07984
Cl         4.33045       -2.91878       -3.00727
H          0.45202       -1.13236       -0.03604
H          0.40978        0.31392        1.00113
H          1.93097       -0.22639        0.25826
H         -0.52342        0.83491       -1.24227
H          0.96213        1.74977       -0.99545
H          2.33496        0.41003       -4.71375
H          3.83282       -0.22523       -4.02514
H          2.20929       -2.37621       -2.09769
H          2.11318       -3.63080       -3.35094
