12

C          0.99691        0.13290        0.06476
C          0.64849       -0.41975       -1.30596
O          1.11633       -1.75549       -1.47922
C          2.52130       -1.84197       -1.67315
H          0.68186       -0.55886        0.85258
H          0.50984        1.09923        0.22502
H          2.07631        0.27570        0.17233
H         -0.44130       -0.45102       -1.40776
H          1.03139        0.22601       -2.10434
H          2.84249       -1.19530       -2.49533
H          3.05608       -1.58286       -0.75550
H          2.76691       -2.87620       -1.92947
