16

O          1.16838        0.01485        0.31499
C          2.29087       -0.07852       -0.16059
C          2.92901        0.98228       -0.97089
C          4.07512        0.59338       -1.68752
C          4.74160        1.50349       -2.50925
C          4.27228        2.80778       -2.62206
C          3.14053        3.20411       -1.90777
C          2.45977        2.29995       -1.07283
C          1.29558        2.82642       -0.32101
O          0.89813        3.97630       -0.49264
H          2.88033       -1.00035       -0.01844
H          4.45550       -0.42462       -1.62582
H          5.62382        1.19396       -3.06566
H          4.78572        3.52138       -3.26296
H          2.79179        4.23258       -2.00124
H          0.79779        2.18547        0.41689
