17

C          1.05058        0.11417        0.13800
C          0.54706       -0.68357       -1.05854
C          1.03544       -2.13838       -1.05216
O          0.53870       -2.80307        0.11346
C          0.55374       -2.93352       -2.28341
N          1.06042       -2.42672       -3.55930
H          0.65273       -0.27853        1.07854
H          0.73244        1.15830        0.05354
H          2.14380        0.09589        0.18887
H         -0.54940       -0.66168       -1.04659
H          0.87804       -0.17588       -1.97086
H          2.13121       -2.17013       -1.01217
H          1.04900       -2.47454        0.87311
H          0.87121       -3.97734       -2.17132
H         -0.54259       -2.95673       -2.30730
H          0.75447       -3.05340       -4.30371
H          0.62668       -1.52723       -3.76344
