8

F          0.94439       -0.05808       -0.04565
C          2.30744       -0.05998        0.00224
F          2.71788       -0.30289       -1.27557
Cl         2.84370        1.58674        0.44772
C          2.81604       -1.16932        0.95640
Cl         2.23357       -0.92789        2.64707
Cl         2.21942       -2.79065        0.41882
Cl         4.61794       -1.25702        0.99352
