31

C          1.37301        0.21321        0.20774
C          0.62136       -0.75842        1.11972
C         -0.86038       -0.39918        1.24088
C         -1.67471       -0.75954       -0.00034
C         -1.54743       -2.25088       -0.37912
C         -2.36860       -2.58731       -1.66477
C         -2.26751       -4.07127       -2.04121
C         -3.85277       -2.22406       -1.52215
C         -0.05899       -2.66610       -0.49201
O          0.53740       -2.19839       -1.69840
C          0.78872       -2.22669        0.70666
H          1.33867        1.22601        0.62446
H          0.95272        0.26549       -0.79844
H          2.42670       -0.07184        0.12134
H          1.07155       -0.64870        2.11580
H         -1.28311       -0.93324        2.10213
H         -0.97456        0.67002        1.45613
H         -1.37640       -0.12529       -0.84279
H         -2.71996       -0.51494        0.21820
H         -1.97691       -2.82727        0.45338
H         -1.97194       -2.00351       -2.50527
H         -2.58444       -4.71190       -1.21142
H         -2.90235       -4.29885       -2.90471
H         -1.24661       -4.34793       -2.31992
H         -3.99573       -1.14191       -1.44989
H         -4.42238       -2.55707       -2.39690
H         -4.29209       -2.69199       -0.63495
H          0.00313       -3.75932       -0.53508
H          0.18295       -1.31863       -1.90260
H          1.84819       -2.43081        0.50840
H          0.50270       -2.84858        1.56559
