29

C          0.93241        0.48167       -0.80637
C          0.54511        1.69876        0.03171
C          0.78395        2.97370       -0.78469
C         -0.91464        1.67147        0.54659
C         -1.44500        0.35747        1.14040
O         -1.22474        0.14084        2.53617
C          0.12353        0.07033        2.98737
C          0.78584       -1.31400        2.85477
O          0.31363       -2.03825        1.72128
C          2.31199       -1.18627        2.76641
O          2.86287       -0.58102        3.92927
H          0.27004        0.36280       -1.66938
H          0.89951       -0.43771       -0.21864
H          1.95945        0.57845       -1.17515
H          1.23330        1.75321        0.87869
H          0.19996        2.96773       -1.71115
H          0.50841        3.86407       -0.21042
H          1.84206        3.06454       -1.05401
H         -1.04394        2.47646        1.28084
H         -1.56338        1.91582       -0.30582
H         -2.53824        0.39769        1.05042
H         -1.15370       -0.51224        0.55040
H          0.72246        0.85895        2.54086
H          0.10432        0.32047        4.05553
H          0.52777       -1.90528        3.74122
H         -0.64858       -2.12523        1.85548
H          2.76398       -2.17734        2.64936
H          2.61049       -0.60801        1.88315
H          2.82830        0.38477        3.80970
