25

O          1.37525       -0.42880        0.33137
S          2.80554       -0.25400        0.25959
O          3.59663       -0.03121        1.45051
O          3.38813       -1.57606       -0.46036
C          3.27002        0.95886       -0.95696
C          2.64451        0.79508       -2.33783
N          1.19715        1.01379       -2.49587
C          0.82095        1.16177       -3.92444
C          1.14088        2.55068       -4.51769
O          0.58949        3.61306       -3.72971
C          1.02315        3.52101       -2.36810
C          0.63436        2.16587       -1.76306
H          2.71542       -2.28483       -0.36086
H          3.06974        1.94530       -0.52926
H          4.36049        0.88002       -1.04817
H          3.19197        1.48017       -2.99677
H          2.86602       -0.21466       -2.70578
H         -0.26278        1.00120       -3.99513
H          1.28581        0.37640       -4.53204
H          2.22025        2.70935       -4.61758
H          0.70686        2.63063       -5.51964
H          0.53498        4.32638       -1.81014
H          2.10469        3.69206       -2.31788
H         -0.45936        2.07174       -1.80060
H          0.88890        2.13113       -0.69991
