61

C          1.12418       -0.48448       -0.06528
C          0.92665       -0.21342        1.41740
C          1.41236        1.17805        1.83006
C          0.65686        2.33377        1.16412
C         -0.85209        2.32370        1.42795
C         -1.21326        2.35554        2.91732
C         -0.70311        3.60178        3.65126
C         -1.26146        4.90828        3.09284
C         -2.78236        4.97482        3.17285
C         -3.32216        5.19555        4.58202
C         -3.17020        6.63370        5.07718
C         -3.64894        7.78303        4.17021
N         -5.17668        7.94153        3.96237
C         -5.86204        7.94429        5.34076
C         -5.43504        9.31872        3.34344
C         -5.88166        6.84806        3.11489
C         -5.62499        6.80031        1.58183
O         -4.26558        7.06809        1.23842
C         -5.95656        5.40724        1.02288
S         -7.70459        5.07123        0.97162
O         -8.39862        6.23758        0.49205
O         -7.93657        3.74150        0.45861
O         -7.98533        4.97687        2.56015
H          0.53206        0.19746       -0.68289
H          0.81248       -1.50436       -0.30807
H          2.17735       -0.37258       -0.34106
H         -0.12902       -0.34969        1.67735
H          1.48106       -0.96337        1.99284
H          1.33932        1.26771        2.92050
H          2.47903        1.27441        1.59646
H          1.08727        3.28103        1.51007
H          0.82827        2.31859        0.08213
H         -1.30948        3.17304        0.90692
H         -1.30515        1.43589        0.97267
H         -2.30052        2.26981        3.01763
H         -0.82069        1.46672        3.42150
H         -0.95566        3.51399        4.71299
H          0.39053        3.64309        3.61281
H         -0.81522        5.75674        3.62321
H         -0.95732        5.02942        2.04619
H         -3.08915        5.78277        2.52625
H         -3.24756        4.08625        2.73789
H         -4.36871        4.88917        4.63346
H         -2.81751        4.52612        5.28750
H         -3.62176        6.71154        6.07213
H         -2.09874        6.80154        5.25399
H         -3.32943        8.71349        4.65965
H         -3.16020        7.78299        3.19556
H         -5.35704        8.67603        5.97780
H         -6.91217        8.21847        5.20396
H         -5.79652        6.93913        5.76559
H         -4.89214        9.39394        2.40009
H         -6.51040        9.42891        3.17915
H         -5.07335       10.08436        4.03651
H         -5.64336        5.89477        3.57659
H         -6.95261        7.01777        3.26818
H         -6.23554        7.55971        1.08247
H         -4.14091        8.01575        1.06510
H         -5.59771        5.31553       -0.00901
H         -5.47143        4.60568        1.59093
H         -8.75351        4.36848        2.68410
