50

C          0.97716       -0.01264       -0.12187
C          0.47536       -0.30269        1.30862
C          0.79217        0.94239        2.16855
C         -1.05994       -0.46072        1.28752
C          1.13268       -1.59422        1.82447
C          0.89888       -2.82232        1.17770
C          1.51345       -4.00234        1.61101
C          2.36724       -3.98660        2.70952
O          2.95875       -5.17075        3.04358
P          3.43170       -5.58095        4.53182
O          4.27105       -4.56535        5.26334
O          2.10853       -5.99803        5.35255
C          0.87984       -6.28723        4.84115
C         -0.20451       -5.80542        5.57635
C         -1.50707       -6.02382        5.13240
C         -1.72499       -6.73817        3.95698
C         -0.64071       -7.24630        3.23828
C          0.66683       -7.03058        3.68565
O          4.18755       -6.99887        4.30040
C          5.55173       -7.02086        4.18014
C          6.25437       -7.88137        5.02104
C          7.64969       -7.87797        5.00747
C          8.33656       -7.02850        4.13995
C          7.62855       -6.19330        3.27512
C          6.23217       -6.19192        3.28897
C          2.61377       -2.78881        3.36382
C          2.00231       -1.60787        2.92623
H          0.56009        0.92601       -0.50478
H          0.69423       -0.80264       -0.82636
H          2.07014        0.07357       -0.14681
H          0.29275        1.83466        1.77277
H          0.45298        0.81358        3.20316
H          1.86677        1.15916        2.18581
H         -1.38725       -1.24628        0.59796
H         -1.44432       -0.71345        2.28273
H         -1.54756        0.46774        0.96754
H          0.23887       -2.87651        0.31460
H          1.31683       -4.93239        1.08403
H         -0.03295       -5.24500        6.49203
H         -2.34663       -5.63360        5.70160
H         -2.74023       -6.90361        3.60481
H         -0.81812       -7.81268        2.32744
H          1.49429       -7.44729        3.11969
H          5.72133       -8.52761        5.71260
H          8.20140       -8.52460        5.68477
H          9.42373       -7.01292        4.14197
H          8.16587       -5.53095        2.60078
H          5.69789       -5.52669        2.61731
H          3.29852       -2.72060        4.20249
H          2.24369       -0.69905        3.47083
