31

O          1.30450       -0.27765       -0.52043
C          2.48980        0.00652       -0.33991
C          2.95975        1.31776       -0.82087
C          3.87571        1.40218       -1.87123
C          4.34977        2.65231       -2.26727
C          3.88983        3.80738       -1.63146
C          2.93800        3.71986       -0.61371
C          2.46080        2.47288       -0.21223
C          3.46182       -0.97604        0.35846
O          3.44095       -2.15072       -0.47416
C          4.93173       -0.56439        0.51965
C          5.16117        0.50797        1.58342
C          4.53144        0.13182        2.91979
C          3.06679       -0.26720        2.77368
C          2.88601       -1.36888        1.73225
H          4.22617        0.50511       -2.37622
H          5.07827        2.72787       -3.07094
H          4.26692        4.78048       -1.93777
H          2.57059        4.62349       -0.13353
H          1.71669        2.40316        0.57743
H          2.49870       -2.38682       -0.58885
H          5.51287       -1.45470        0.80037
H          5.37044       -0.25089       -0.43232
H          4.75876        1.46970        1.25308
H          6.23834        0.66020        1.71857
H          4.61671        0.97410        3.61583
H          5.09174       -0.70201        3.35991
H          2.47100        0.60990        2.49541
H          2.68592       -0.61302        3.74136
H          1.82236       -1.62586        1.65274
H          3.37847       -2.28604        2.08359
