96

C          1.14587       -0.24453        0.36151
C          1.08045        1.26843        0.50559
C          1.56827        2.02563       -0.73375
C          0.81927        1.71928       -2.03618
C         -0.70223        1.86572       -1.95932
C         -1.19549        3.30226       -1.75845
C         -1.19468        4.17381       -3.01948
C         -1.98323        3.65416       -4.22705
S         -3.79972        3.79682       -4.13397
C         -4.19793        2.55905       -2.92641
N         -4.80882        3.02006       -1.83833
C         -5.03821        2.12284       -0.89796
N         -5.65299        2.58283        0.27422
C         -6.08006        1.74457        1.31455
C         -5.14905        0.98212        2.02099
C         -5.51590        0.00371        2.96472
C         -4.36695       -0.75587        3.67164
C         -3.53154       -1.51343        2.60957
C         -3.44885        0.25958        4.39898
C         -4.77291       -1.79784        4.73543
C         -6.90233       -0.19959        3.14529
O         -7.30931       -1.19120        3.98570
C         -7.89214        0.54504        2.45684
C         -9.42414        0.33497        2.56353
C        -10.10749        1.66986        2.94861
C         -9.96109       -0.12667        1.18591
C         -9.91466       -0.70795        3.59149
C         -7.43443        1.52561        1.54750
N         -4.75766        0.83558       -1.03473
C         -4.23725        0.45795       -2.19350
S         -4.17822       -1.30741       -2.41202
C         -2.77980       -1.55119       -3.54695
C         -3.22261       -1.85179       -4.98526
C         -3.76688       -0.65592       -5.77212
C         -2.71099        0.42414       -6.02018
C         -1.92314        0.24453       -7.31715
C         -2.65751        0.73238       -8.57089
C         -3.09509        2.20268       -8.55743
C         -1.96230        3.18215       -8.28949
N         -3.89785        1.28599       -3.17149
H          0.47910       -0.60578       -0.42705
H          0.83973       -0.72415        1.29679
H          2.16416       -0.57168        0.12970
H          0.05694        1.56811        0.75690
H          1.70179        1.56505        1.35898
H          1.51554        3.10091       -0.52750
H          2.63122        1.80184       -0.88907
H          1.21346        2.36368       -2.83102
H          1.05163        0.69214       -2.34338
H         -1.12855        1.43604       -2.86870
H         -1.09197        1.24482       -1.14560
H         -2.20275        3.27407       -1.33879
H         -0.59195        3.80124       -0.99221
H         -1.55264        5.17703       -2.75498
H         -0.15222        4.30568       -3.33612
H         -1.70019        4.27539       -5.08513
H         -1.69398        2.63841       -4.49618
H         -6.25051        3.36401        0.04298
H         -4.09762        1.15871        1.80163
H         -3.05581       -0.83897        1.88905
H         -2.72652       -2.09238        3.07719
H         -4.15858       -2.21063        2.04122
H         -4.01567        0.84430        5.13314
H         -2.63789       -0.25043        4.93252
H         -2.97200        0.96678        3.71206
H         -5.37116       -1.34909        5.53581
H         -5.32880       -2.63324        4.29732
H         -3.88757       -2.23827        5.21133
H         -7.21542       -2.01095        3.46956
H         -9.96080        2.45216        2.19667
H        -11.19111        1.54256        3.05828
H         -9.71764        2.04890        3.90058
H         -9.46749       -1.05100        0.86214
H        -11.03946       -0.32035        1.22442
H         -9.80226        0.62138        0.40159
H         -9.57281       -1.71847        3.34195
H         -9.58926       -0.45985        4.60773
H        -11.01079       -0.75395        3.61290
H         -8.14908        2.09613        0.95966
H         -2.05926       -0.73467       -3.47568
H         -2.25597       -2.44059       -3.17652
H         -2.36525       -2.26635       -5.52976
H         -3.98275       -2.64408       -4.97671
H         -4.17630       -1.01054       -6.72476
H         -4.61454       -0.22095       -5.23220
H         -3.20403        1.39780       -6.01503
H         -1.99181        0.45239       -5.19784
H         -0.97504        0.78829       -7.22797
H         -1.65147       -0.81002       -7.44563
H         -1.99900        0.57224       -9.43350
H         -3.54279        0.10845       -8.74020
H         -3.53917        2.43959       -9.53146
H         -3.89028        2.35718       -7.81985
H         -1.16587        3.07295       -9.03176
H         -2.33483        4.21043       -8.33837
H         -1.52930        3.03841       -7.29563
