33

C          0.94507       -0.10938       -0.00266
C          0.55547       -0.71543        1.32307
C          0.06848        0.14372        2.32077
C         -0.31452       -0.29213        3.60543
C         -0.81487        0.61949        4.61398
C         -0.98586        2.01893        4.43071
C         -1.47111        2.85886        5.43907
C         -1.80518        2.33118        6.67509
C         -1.65516        0.96621        6.89657
C         -1.16990        0.11590        5.88698
C         -1.03812       -1.24274        6.14777
C         -0.56156       -2.11333        5.16854
C         -0.18568       -1.68151        3.87758
C          0.31250       -2.58927        2.86697
C          0.45930       -3.98900        3.07362
C          0.94595       -4.85641        2.09284
C          1.31017       -4.35494        0.85889
C          1.18234       -2.99046        0.61379
C          0.68621       -2.09227        1.58990
H          0.67190        0.94988       -0.06060
H          0.42859       -0.61355       -0.82572
H          2.02827       -0.17994       -0.14503
H         -0.00459        1.19746        2.06573
H         -0.74293        2.49206        3.48404
H         -1.58489        3.92314        5.25049
H         -2.18163        2.97575        7.46428
H         -1.92250        0.56560        7.87240
H         -1.30522       -1.65027        7.12056
H         -0.48989       -3.15796        5.45579
H          0.19173       -4.44534        4.02189
H          1.03757       -5.91866        2.30232
H          1.69190       -5.01641        0.08647
H          1.48135       -2.63379       -0.36905
