38

C         -0.54685        0.46369       -0.01580
S         -0.17057       -0.28597       -1.58492
O          0.80664       -1.33009       -1.35084
O         -1.41384       -0.55759       -2.25433
N          0.55197        0.92092       -2.45391
C          1.85497        1.44437       -2.41632
O          2.32130        2.01154       -3.38776
C          2.49559        1.59505       -1.10053
C          2.43243        2.88601       -0.54473
C          2.98263        3.14767        0.71227
O          2.95875        4.46972        1.10446
C          3.80607        4.88434        2.10772
C          3.18762        5.49986        3.19991
C          3.94606        5.92069        4.29449
C          5.33554        5.72891        4.31404
C          6.14674        6.13827        5.52061
F          6.45829        7.46142        5.51269
F          5.49205        5.91033        6.69293
F          7.32862        5.46989        5.62004
C          5.95916        5.18259        3.18035
C          5.20409        4.78617        2.07040
Cl         6.06252        4.20679        0.68798
C          3.50901        2.09293        1.46198
C          3.64680        0.82544        0.88553
C          3.18994        0.59366       -0.42247
N          3.54869       -0.66713       -1.06831
O          3.76465       -1.63850       -0.33048
O          3.68683       -0.65828       -2.29705
H         -1.24761       -0.19615        0.50215
H         -1.00439        1.43897       -0.17916
H          0.36572        0.54438        0.57519
H          0.11733        1.00084       -3.37535
H          1.98445        3.70254       -1.11175
H          2.10960        5.64598        3.20221
H          3.44596        6.39001        5.14174
H          7.04282        5.06559        3.16497
H          3.88362        2.24800        2.47092
H          4.15099        0.04312        1.45181
