38

O          2.30121        0.81283       -0.54448
C          1.24980        0.35595       -0.08275
C          0.33775        1.27486        0.69957
C         -0.88990        1.62775       -0.13130
C         -2.02200        0.61318        0.00441
C         -1.68648       -0.80129       -0.47329
C         -0.48729       -1.43593        0.23483
N          0.79271       -0.94363       -0.27691
S          1.58604       -1.93273       -1.44895
S          3.51019       -2.14699       -0.75549
N          4.17372       -3.44318       -1.67455
C          4.99987       -3.05630       -2.82088
C          4.58005       -3.73535       -4.12444
C          5.04928       -5.18159       -4.25045
C          4.49738       -6.10688       -3.17261
C          5.00888       -5.76692       -1.78102
C          4.17829       -4.70358       -1.09041
O          3.57168       -4.99403       -0.05778
H          0.08509        0.84693        1.67463
H          0.90568        2.19041        0.90772
H         -1.26661        2.60284        0.20026
H         -0.61985        1.73763       -1.18931
H         -2.34946        0.57618        1.05071
H         -2.88101        0.97698       -0.57347
H         -2.56904       -1.42606       -0.28666
H         -1.52773       -0.79617       -1.55815
H         -0.53596       -1.24304        1.31300
H         -0.53034       -2.52615        0.11952
H          6.04809       -3.27640       -2.58749
H          4.92872       -1.97203       -2.97458
H          5.01961       -3.17588       -4.96020
H          3.49173       -3.68379       -4.24744
H          6.14608       -5.21602       -4.24070
H          4.73865       -5.56388       -5.23069
H          4.81301       -7.12894       -3.41563
H          3.40110       -6.09772       -3.19691
H          6.06366       -5.47153       -1.78332
H          4.94572       -6.66861       -1.15855
