34

C         -0.02938        0.27045        0.50077
C          0.17361        1.76710        0.72512
O          0.91535        2.39530       -0.31958
P          2.64535        2.39530       -0.31958
O          2.66696        1.16150        0.59238
O          2.68926        1.86103       -1.90610
C          1.64852        1.20155       -2.51703
C          0.61331        1.97904       -3.04537
C         -0.51540        1.36880       -3.59127
C         -0.58497       -0.02090       -3.65670
Cl        -1.99618       -0.76687       -4.30036
C          0.47263       -0.80585       -3.19717
C          1.59579       -0.19197       -2.62710
Cl         2.87916       -1.19507       -2.06465
O          4.37535        2.39530       -0.31958
C          5.10285        2.71309        0.80210
C          5.08035        1.88927        1.93305
C          5.89002        2.17948        3.03429
C          6.75159        3.26810        2.99118
Cl         7.75593        3.61435        4.34426
C          6.81790        4.07261        1.85304
C          5.99228        3.78876        0.75974
Cl         6.10808        4.79233       -0.64036
H         -0.61646        0.08929       -0.40377
H         -0.55521       -0.17807        1.34851
H          0.90642       -0.27854        0.37164
H         -0.81549        2.23718        0.73102
H          0.63128        1.97602        1.69661
H          0.65843        3.06186       -2.97431
H         -1.34003        1.98264       -3.94379
H          0.41205       -1.88917       -3.26817
H          4.46863        0.99309        1.96784
H          5.85325        1.53255        3.90958
H          7.51493        4.90285        1.81538
