27

C          0.80268        0.29690        0.67736
C          0.30775        1.38247       -0.27792
C          1.11038        1.39467       -1.56357
N          1.85623        2.58763       -1.84574
N          2.70160        2.74612       -2.93947
C          3.10155        1.83278       -3.77053
C          2.78586        0.41111       -3.83171
C          1.57758       -0.03357       -4.36213
C          1.27129       -1.38775       -4.27422
C          2.20549       -2.23799       -3.69858
N          3.40838       -1.83121       -3.22976
C          3.68154       -0.50888       -3.31194
C          1.56562        3.76620       -1.12894
O          2.03240        4.85082       -1.47582
N          0.76092        3.70092       -0.00904
N          0.27730        2.64867        0.44256
H          0.74199       -0.69092        0.20597
H          0.19409        0.27044        1.58739
H          1.84226        0.47128        0.97445
H         -0.72920        1.12554       -0.52981
H          0.40551        1.26540       -2.39087
H          1.80305        0.55229       -1.54733
H          3.80790        2.16750       -4.55129
H          0.86561        0.66825       -4.78820
H          0.32026       -1.77068       -4.62861
H          2.00305       -3.30043       -3.58991
H          4.64364       -0.20698       -2.90738
