22

N          0.98858        0.06614       -0.17820
C          0.57396       -1.18277        0.49397
C          1.03368       -1.24410        1.95840
C          0.61741       -0.11688        2.92030
C         -0.86093        0.06390        3.26488
C         -1.52450       -1.07645        3.99253
O         -2.23786       -0.97258        4.97476
O         -1.36321       -2.26527        3.39357
C         -0.92229       -1.45715        0.30396
O         -1.46947       -2.54786        0.35720
O         -1.66137       -0.34436        0.08939
H          0.36530        0.81779        0.11875
H          1.93243        0.31817        0.10508
H          1.07982       -1.99189       -0.04839
H          0.76695       -2.21685        2.38264
H          2.13374       -1.24276        1.94800
H          1.16052       -0.27970        3.86092
H          0.99001        0.83673        2.52535
H         -0.92941        0.92823        3.93947
H         -1.46175        0.32185        2.39310
H         -1.91794       -2.89142        3.90381
H         -2.56808       -0.69338       -0.03573
