42

C          1.47969       -0.34979       -0.08454
C          1.09060        0.96711       -0.31881
C         -0.26478        1.29591       -0.37804
C         -1.24846        0.31532       -0.18392
C         -2.72168        0.66991       -0.21395
N         -3.29543        1.23445        1.02006
C         -3.15594        0.34446        2.17688
C         -3.92315        0.88739        3.38020
C         -3.46155        2.30759        3.71977
N         -4.28012        2.79624        4.83548
C         -3.64920        3.42407        5.91422
C         -4.19953        3.23384        7.18836
C         -3.66357        3.87110        8.31029
C         -2.59101        4.74323        8.16547
C         -2.06265        4.98335        6.89845
C         -2.59766        4.33353        5.78002
C         -3.60907        3.19738        2.48479
C         -2.83914        2.59582        1.30781
C         -0.84134       -1.00920        0.04146
C          0.51448       -1.33927        0.08863
H          2.53500       -0.60523       -0.03929
H          1.84263        1.73976       -0.45499
H         -0.55026        2.32729       -0.57003
H         -2.90295        1.35642       -1.05187
H         -3.29562       -0.22869       -0.47922
H         -2.10285        0.21562        2.45626
H         -3.55713       -0.64768        1.93742
H         -3.76868        0.22699        4.24252
H         -5.00115        0.87740        3.16937
H         -2.40264        2.25259        4.00736
H         -5.08091        3.34603        4.52860
H         -5.03938        2.55510        7.31095
H         -4.08833        3.68215        9.29268
H         -2.17208        5.24242        9.03524
H         -1.23840        5.67985        6.77777
H         -2.17793        4.55936        4.80468
H         -4.66813        3.30815        2.21573
H         -3.23458        4.20689        2.68860
H         -2.99982        3.23675        0.43260
H         -1.76866        2.61841        1.54203
H         -1.58183       -1.79337        0.18424
H          0.81714       -2.36844        0.26356
