45

C          1.20235        0.34994        0.35396
C          0.97735        1.12200       -0.93681
C          1.32097        0.32048       -2.19465
C          0.52102       -0.97186       -2.38842
C         -1.00226       -0.80352       -2.39550
C         -1.55491        0.11952       -3.48787
C         -1.19436       -0.27137       -4.92594
C         -1.56139       -1.70487       -5.32130
C         -3.06840       -1.96098       -5.44020
C         -3.65594       -1.59710       -6.80679
C         -3.18853       -2.46744       -7.97770
C         -3.89482       -3.81416       -8.02804
O         -4.96505       -3.89454       -8.63666
N         -3.35078       -4.90379       -7.36395
C         -2.03452       -4.97365       -6.74895
C         -4.09774       -6.15203       -7.37135
H          0.54461       -0.52140        0.42321
H          0.99258        0.99094        1.21607
H          2.23917        0.00767        0.42959
H         -0.06037        1.47018       -0.97817
H          1.60283        2.02251       -0.91868
H          1.18566        0.96732       -3.06953
H          2.38791        0.06466       -2.17181
H          0.84471       -1.44316       -3.32412
H          0.78761       -1.68385       -1.59810
H         -1.46182       -1.79466       -2.48818
H         -1.33371       -0.42645       -1.42108
H         -2.64519        0.16142       -3.38376
H         -1.20446        1.14330       -3.31056
H         -1.67397        0.43443       -5.61458
H         -0.11480       -0.14074       -5.06806
H         -1.05760       -1.92782       -6.26623
H         -1.14050       -2.40976       -4.59681
H         -3.27497       -3.01461       -5.23007
H         -3.60821       -1.40254       -4.66778
H         -4.74954       -1.65688       -6.73405
H         -3.41828       -0.55004       -7.02913
H         -3.46507       -1.95300       -8.90876
H         -2.10535       -2.56620       -8.03965
H         -2.16360       -5.07177       -5.66660
H         -1.51274       -5.85920       -7.12417
H         -1.41619       -4.10532       -6.95838
H         -5.15674       -5.99635       -7.59278
H         -3.66668       -6.80643       -8.13501
H         -4.01365       -6.62993       -6.39058
