30

C          0.23810        0.08082       -0.02300
C          0.40215        0.62632        1.38774
C          1.00874        2.00911        1.38829
N          0.13506        3.00825        1.11679
C          0.60793        4.25365        1.10741
N         -0.28934        5.27067        0.85415
N          1.86730        4.59259        1.37246
C          2.72382        3.59151        1.62354
N          4.02853        4.00303        1.92127
C          2.35734        2.24474        1.64757
C          3.32567        1.17726        1.93207
C          3.72070        0.90126        3.25163
C          4.64263       -0.11285        3.52570
C          5.17988       -0.85962        2.48055
Cl         6.31372       -2.10880        2.81575
C          4.80699       -0.59839        1.16435
C          3.88663        0.41770        0.89181
H         -0.40657        0.72873       -0.62670
H         -0.21712       -0.91420        0.00746
H          1.20087       -0.00274       -0.53620
H         -0.58424        0.68114        1.86563
H          0.98620       -0.07158        1.99625
H          0.03538        6.12154        1.29134
H         -1.22143        4.95835        1.08798
H          4.07333        5.00750        1.77090
H          4.71752        3.49898        1.37421
H          3.31400        1.48520        4.07618
H          4.93688       -0.30969        4.55321
H          5.22807       -1.17843        0.34732
H          3.60974        0.61479       -0.14248
