29

C          1.24815        0.02075        0.08122
C          0.58473        0.23901        1.44210
C          1.00736        1.59664        2.00998
C         -0.95191        0.16304        1.35738
C         -1.52155       -1.19272        0.92038
C         -1.14619       -2.38502        1.80980
C         -1.57037       -2.26856        3.28652
C         -3.09009       -2.19842        3.44549
C         -1.02331       -3.45847        4.07970
H          0.88398        0.74242       -0.65786
H          1.05414       -0.98600       -0.30063
H          2.33502        0.13545        0.15612
H          0.95090       -0.52931        2.13231
H          0.67202        2.41916        1.36949
H          0.58368        1.74816        3.00854
H          2.09731        1.65860        2.09926
H         -1.38316        0.43486        2.32850
H         -1.30929        0.92395        0.65110
H         -2.61345       -1.10851        0.86665
H         -1.19815       -1.40985       -0.10455
H         -1.60020       -3.28627        1.37721
H         -0.06238       -2.54396        1.75461
H         -1.13518       -1.36162        3.72111
H         -3.57707       -3.06731        2.98992
H         -3.36908       -2.17338        4.50454
H         -3.49883       -1.29593        2.98133
H          0.06977       -3.49419        4.02071
H         -1.29595       -3.37905        5.13761
H         -1.41601       -4.40692        3.69832
