25

C          3.48517        0.04098       -0.10378
C          2.00619       -0.23583       -0.02094
N          1.21589        0.89722       -0.07051
C         -0.15750        0.91202       -0.03478
O         -0.78292        1.96566       -0.06536
C         -0.81800       -0.41519        0.03669
C         -2.23420       -0.49558        0.02849
N         -3.38740       -0.62578        0.01603
C         -0.04544       -1.51302        0.09816
C          1.41618       -1.45161        0.08371
C          2.21503       -2.69362        0.17773
C          3.01147       -2.94949        1.29713
C          3.73635       -4.12864        1.33535
N          3.70370       -5.05961        0.35930
C          2.91141       -4.80260       -0.70267
C          2.15767       -3.64848       -0.83966
H          3.70556        0.63581       -0.99730
H          3.81105        0.60863        0.77447
H          4.09939       -0.86014       -0.16717
H          1.64938        1.81230       -0.13119
H         -0.49915       -2.50080        0.15346
H          3.07770       -2.24617        2.12041
H          4.38217       -4.36254        2.17711
H          2.89735       -5.57539       -1.46635
H          1.54388       -3.50530       -1.72255
