30

C          1.15028       -0.24498       -0.09137
C          0.53368        0.67693        0.65896
C         -0.92818        0.87941        0.72147
O         -1.41911        1.84301        1.29210
O         -1.60669       -0.12507        0.11924
C         -3.03856       -0.02542        0.14325
C         -3.73273       -0.70045        1.37022
C         -4.87122        0.20541        1.91901
C         -4.43533        1.54799        2.49534
C         -2.76322       -1.10753        2.49655
O         -1.85963       -2.12900        2.07985
C         -2.55158       -3.27510        1.60798
O         -3.40256       -2.97036        0.51123
C         -4.38799       -2.01784        0.89247
H          0.60000       -0.93388       -0.72494
H          2.23189       -0.32755       -0.08239
H          1.10506        1.36011        1.27781
H         -3.33449        1.02313        0.02815
H         -3.37976       -0.49503       -0.78762
H         -5.60501        0.39246        1.12434
H         -5.40960       -0.33399        2.70964
H         -4.04359        2.21387        1.72229
H         -5.29608        2.05322        2.94612
H         -3.67691        1.43207        3.27401
H         -2.16621       -0.26128        2.84613
H         -3.31326       -1.47627        3.37238
H         -3.11953       -3.74513        2.42045
H         -1.80736       -3.99823        1.26216
H         -5.01942       -2.45947        1.67518
H         -5.04039       -1.84377        0.02894
