80

C          0.27463        0.46314        0.10555
O          0.14244        0.61068        1.51079
C          1.09483        0.02160        2.41728
C          0.65507       -1.40129        2.88588
O          1.31611       -1.65814        4.15410
C          1.51386       -2.91503        4.58815
N          2.81480       -3.26497        4.44679
O          0.66295       -3.62988        5.08798
C          0.95286       -2.44057        1.79641
O         -0.03426       -2.34909        0.75865
C          2.41376       -2.30510        1.25788
O          2.64835       -3.20769        0.12900
C          2.11785       -2.79383       -1.06850
C          2.58474       -1.61741       -1.65707
C          1.93273       -1.07930       -2.75965
C          0.88246       -1.77503       -3.35310
C          0.16599       -1.23798       -4.49314
O          0.12964        0.13557       -4.55982
C         -0.38449       -2.07043       -5.38781
N         -0.75344       -1.72955       -6.68275
C         -0.18657       -0.84025       -7.58498
O         -0.70964       -0.63842       -8.67700
C          1.06928       -0.12298       -7.25197
C          1.03664        1.27247       -7.21276
C          2.10010        1.95792       -6.63160
C          3.19966        1.25732       -6.12967
O          4.12505        2.02735       -5.48389
C          3.30286       -0.13795       -6.25938
C          4.45744       -0.95108       -5.70562
C          5.79756       -0.51775       -6.23759
C          6.87196       -0.14913       -5.51058
C          8.12791        0.33399       -6.18367
C          6.91067       -0.17380       -4.00631
C          2.21793       -0.82071       -6.84419
C         -0.69668       -3.46707       -4.94109
O         -1.30766       -4.23128       -5.68533
O         -0.33208       -3.83440       -3.64588
C          0.56666       -3.04534       -2.89443
C          1.14117       -3.56932       -1.72372
C          0.65301       -4.88129       -1.18193
O          2.90726       -0.97100        1.05408
C          2.60482        0.05529        2.01521
C          3.02131        1.38948        1.35097
C          3.54860       -0.02434        3.24220
H          0.06510        1.43319       -0.35594
H         -0.46638       -0.23549       -0.28590
H          1.25827        0.15265       -0.22037
H          1.00631        0.66743        3.30107
H         -0.42322       -1.37567        3.08869
H          3.13309       -4.12734        4.86283
H          3.50881       -2.58307        4.18355
H          0.83864       -3.45989        2.18160
H         -0.83044       -1.90371        1.09606
H          3.07648       -2.71398        2.02151
H          3.41790       -1.07308       -1.22328
H          2.25229       -0.11645       -3.15234
H         -0.54779        0.38823       -5.21192
H         -1.39417       -2.38172       -7.13620
H          0.15963        1.81770       -7.55125
H          2.05604        3.03848       -6.51962
H          4.88497        1.47854       -5.23700
H          4.41300       -0.90528       -4.61212
H          4.32921       -2.00860       -5.96977
H          5.86382       -0.48739       -7.32568
H          8.33909        1.36618       -5.88429
H          8.97865       -0.29395       -5.90179
H          8.04556        0.31670       -7.27550
H          6.15501        0.49473       -3.58198
H          6.74425       -1.18881       -3.63144
H          7.88422        0.15767       -3.62911
H          2.23373       -1.90639       -6.91695
H         -0.41805       -4.81622       -0.95816
H          0.81432       -5.67929       -1.91381
H          1.16363       -5.16874       -0.25878
H          2.66494        2.24985        1.92708
H          4.11686        1.45447        1.29480
H          2.69032        1.49406        0.31733
H          3.16965       -0.59788        4.07797
H          4.52011       -0.45112        2.97718
H          3.71034        0.97135        3.67621
