24

C          1.00717        0.05033       -0.26506
C          0.53095       -1.27918        0.30708
C          0.95271       -1.58369        1.72627
C          1.00055       -2.92318        2.14066
C          1.35162       -3.25969        3.45090
C          1.64894       -2.26303        4.38610
C          2.02693       -2.62137        5.80113
C          0.87283       -3.24117        6.57669
C          1.59080       -0.92502        3.98109
C          1.24138       -0.58943        2.66823
H          0.54998        0.89865        0.25422
H          0.72773        0.12466       -1.32124
H          2.09549        0.14757       -0.19391
H         -0.56408       -1.31670        0.25972
H          0.91052       -2.07322       -0.34870
H          0.76274       -3.72086        1.43997
H          1.38725       -4.30865        3.73594
H          2.87671       -3.31425        5.77818
H          2.37347       -1.72819        6.33515
H          0.55166       -4.18837        6.13078
H          1.17759       -3.44417        7.60834
H          0.00730       -2.57061        6.60212
H          1.81395       -0.12727        4.68597
H          1.19824        0.46337        2.40272
