95

C          0.92632        0.16358       -0.02340
C          0.38225       -0.61235       -1.21326
C          0.81102       -2.08276       -1.23688
C          0.45776       -2.89053        0.01667
N         -0.98989       -3.12355        0.13342
C         -1.39905       -4.37757       -0.35250
C         -2.25121       -4.46745       -1.45554
C         -2.51767       -5.70915       -2.04298
C         -1.94897       -6.87982       -1.52167
C         -2.28670       -8.17781       -2.18869
O         -2.56817       -8.26276       -3.35403
O         -2.35214       -9.17176       -1.25445
C         -2.98679      -10.39242       -1.68031
C         -4.52251      -10.40192       -1.59116
O         -5.12823       -9.17773       -1.95820
C         -5.21776       -8.13331       -0.99445
C         -4.47214       -8.18345        0.35988
O         -4.25665       -9.46292        0.93167
C         -5.14486       -9.84699        1.96639
C         -6.62877       -9.81498        1.58953
O         -7.11212       -8.60390        1.03313
C         -7.42918       -7.44130        1.77823
C         -6.55104       -7.02198        2.96077
O         -6.25501       -8.02390        3.90279
C         -7.23592       -8.68731        4.67093
C         -8.68241       -8.80287        4.18112
O         -9.60591       -7.73883        4.30394
C         -9.26637       -6.37792        4.46505
C         -8.39786       -6.01632        5.66903
O         -8.80042       -6.45169        6.95616
C         -9.41668       -7.71019        7.16317
C        -10.91559       -7.74752        6.85839
O        -11.66689       -6.80022        7.59602
C        -11.53378       -5.42848        7.22861
C        -10.62142       -4.56409        8.13270
O        -10.71694       -4.66247        9.55485
C        -10.86232       -5.97264       10.08365
C        -12.32596       -6.33645       10.39886
O        -13.31141       -5.72936        9.56176
C        -13.53646       -4.35392        9.83532
C         -1.16362       -6.80440       -0.36781
C         -0.89948       -5.55981        0.21162
H          0.47281       -0.17290        0.91360
H          0.69953        1.22868       -0.13171
H          2.01242        0.05293        0.05652
H         -0.70992       -0.53275       -1.23185
H          0.74449       -0.13637       -2.13299
H          0.37484       -2.56001       -2.12357
H          1.89964       -2.12005       -1.37077
H          1.02203       -3.83074       -0.01900
H          0.80164       -2.38024        0.92077
H         -1.53610       -2.36333       -0.26426
H         -2.69129       -3.57297       -1.88839
H         -3.18246       -5.76251       -2.90313
H         -2.67815      -10.62965       -2.70213
H         -2.60056      -11.19530       -1.04168
H         -4.88585      -11.15682       -2.29852
H         -4.90554      -10.78072       -0.64131
H         -4.89421       -7.22141       -1.50673
H         -6.28178       -7.93534       -0.86002
H         -3.48928       -7.74421        0.26242
H         -4.92760       -7.49164        1.05304
H         -4.89438      -10.88449        2.21900
H         -4.87823       -9.27419        2.84868
H         -6.77075      -10.55481        0.79354
H         -7.24444      -10.17378        2.41088
H         -7.39730       -6.61291        1.05838
H         -8.48485       -7.49873        2.03392
H         -5.58243       -6.66947        2.60292
H         -6.92658       -6.12515        3.44841
H         -6.85710       -9.71334        4.75885
H         -7.15301       -8.30411        5.68562
H         -8.75689       -9.16027        3.15811
H         -9.13564       -9.62064        4.75498
H         -8.87592       -5.96130        3.53672
H        -10.22113       -5.85768        4.55899
H         -7.35483       -6.29967        5.54240
H         -8.35723       -4.92060        5.71897
H         -8.88842       -8.51819        6.66892
H         -9.27433       -7.93125        8.22469
H        -11.18498       -7.64122        5.81081
H        -11.27862       -8.73885        7.15395
H        -11.23288       -5.32041        6.18640
H        -12.54295       -5.01123        7.25736
H         -9.56720       -4.65796        7.88186
H        -10.84723       -3.51756        7.89433
H        -10.37425       -6.71886        9.46041
H        -10.29395       -6.02355       11.01922
H        -12.43667       -7.42304       10.29365
H        -12.55500       -6.09918       11.44152
H        -14.43280       -4.25988       10.44806
H        -12.70706       -3.86559       10.35165
H        -13.70791       -3.83687        8.88585
H         -0.76942       -7.70327        0.09959
H         -0.28977       -5.50859        1.11141
