17

C          0.89093        0.19228        0.03079
C          0.50300        0.22703        1.48100
O         -0.20681        1.13299        1.92262
C          0.95990       -0.82736        2.43405
C          1.72688       -1.92103        2.25814
C          2.02360       -2.81821        3.43488
C          2.34899       -2.37118        0.96815
H          0.44808        1.05571       -0.47666
H          0.49960       -0.70755       -0.44753
H          1.97469        0.26720       -0.07630
H          0.57256       -0.62145        3.43245
H          1.65126       -3.82989        3.24223
H          3.10371       -2.87009        3.60777
H          1.55700       -2.46460        4.36041
H          1.58415       -2.59030        0.21807
H          3.04868       -1.62252        0.58664
H          2.92363       -3.29395        1.10774
