23

C          0.37847        0.15650       -0.31871
O          0.58683       -1.24610       -0.14306
C          0.91205       -1.84921       -1.33391
C         -0.12668       -2.48384       -2.01721
C          0.13914       -3.14371       -3.20986
C          1.44477       -3.18052       -3.70174
C          2.51342       -2.57449       -3.01564
O          3.69339       -2.76561       -3.67874
C          4.91370       -2.29327       -3.13552
C          2.23669       -1.91037       -1.81146
C          3.25515       -1.23316       -1.00607
O          3.74785       -0.14370       -1.23287
O          3.58667       -1.96842        0.06864
H         -0.16320        0.52374        0.55819
H         -0.22242        0.37877       -1.20743
H          1.33449        0.68544       -0.36557
H         -1.13714       -2.46240       -1.61820
H         -0.66192       -3.63600       -3.75531
H          1.64128       -3.70415       -4.63666
H          4.95725       -1.20186       -3.16633
H          5.09229       -2.69065       -2.13293
H          5.72229       -2.66446       -3.77354
H          4.19873       -1.40046        0.57953
