37

C          1.02965        0.05102        0.01752
C          0.49232        1.01182        1.10346
C          0.95513        2.43141        0.70211
C         -1.04921        0.99078        1.07501
C          0.96095        0.58142        2.50568
C          0.87402       -0.75718        2.90619
C          1.28256       -1.15544        4.17846
C          1.77417       -0.22004        5.09328
O          2.15712       -0.67858        6.32050
C          1.86514        1.13845        4.76587
C          2.36632        2.25809        5.70821
C          3.59384        2.95343        5.07264
C          1.24031        3.30198        5.90534
C          2.80071        1.81917        7.12427
C          1.44903        1.50136        3.45574
H          0.75793        0.39785       -0.98666
H          0.62363       -0.96120        0.11588
H          2.12264       -0.02191        0.06072
H          0.65575        2.66924       -0.32578
H          0.51230        3.20294        1.34212
H          2.04601        2.52612        0.75644
H         -1.44666       -0.00975        1.28089
H         -1.46852        1.67048        1.82652
H         -1.43163        1.30045        0.09558
H          0.47774       -1.51667        2.23730
H          1.20256       -2.20620        4.44129
H          2.03654       -1.64030        6.35724
H          3.35660        3.43509        4.11815
H          3.99038        3.73581        5.73062
H          4.39991        2.23365        4.88710
H          0.33893        2.83334        6.31809
H          1.55069        4.09405        6.59709
H          0.95563        3.79521        4.96992
H          1.97418        1.36055        7.67858
H          3.64133        1.11712        7.09191
H          3.13521        2.67921        7.71796
H          1.50642        2.55115        3.18183
