22

Cl        -2.68293        0.82832        0.25345
C         -1.19366       -0.02330        0.12030
C         -0.00267        0.68503        0.00488
C          1.19225       -0.01582       -0.11484
Cl         2.67677        0.84481       -0.24303
C          1.20245       -1.41278       -0.12968
C          0.00516       -2.13805       -0.00436
C          0.00978       -3.62029       -0.01085
C         -0.49051       -4.34802       -1.11930
Cl        -1.08771       -3.47944       -2.51243
C         -0.49527       -5.75796       -1.12376
Cl        -1.14588       -6.62380       -2.48946
C          0.02341       -6.46478       -0.02569
Cl         0.03292       -8.20776       -0.03533
C          0.53465       -5.76450        1.08005
Cl         1.19382       -6.63825        2.43657
C          0.51616       -4.35470        1.09039
Cl         1.10427       -3.49490        2.49278
C         -1.19613       -1.42043        0.12615
H         -0.00572        1.77165        0.00810
H          2.15232       -1.93518       -0.22793
H         -2.14310       -1.94873        0.22071
