26

C          2.16539        0.19877       -0.11833
N          0.74810       -0.05548       -0.03143
C         -0.14755        0.98787        0.01317
N         -1.38781        0.57488        0.03366
C         -1.30076       -0.80341        0.02368
N         -2.53125       -1.57779        0.01406
O         -2.44337       -2.80846       -0.09680
O         -3.59796       -0.95202        0.09737
C          0.02692       -1.23362        0.00068
S          0.61109       -2.87664       -0.01712
C          2.35740       -2.87745        0.05334
N          3.02242       -2.39783        1.12424
C          4.36938       -2.49024        1.12962
N          5.16314       -2.99795        0.18049
C          4.47797       -3.50664       -0.85739
N          5.02498       -4.11957       -1.95096
C          3.99931       -4.48732       -2.68679
N          2.81130       -4.11775       -2.11816
C          3.09999       -3.47245       -0.94572
H          2.60631        0.04044        0.86660
H          2.60510       -0.42780       -0.89397
H          2.33035        1.24325       -0.40185
H          0.16336        2.02637        0.01866
H          4.87108       -2.09413        2.00798
H          4.05288       -5.02120       -3.62730
H          1.88810       -4.30373       -2.48764
