22

C          0.79304        0.03073        0.23945
C          0.53095        0.01677       -1.26253
O          1.14543       -1.13482       -1.89428
C          2.45483       -1.23406       -2.25304
S          3.54039        0.01730       -2.00845
N          2.76437       -2.46635       -2.82474
C          1.73954       -3.43396       -3.19532
C          4.14257       -2.86932       -3.08720
C         -0.97108       -0.06380       -1.49535
O         -1.66641        0.80397       -2.00476
O         -1.54129       -1.20197       -1.04583
H          0.47415       -0.90865        0.70471
H          0.25468        0.85206        0.72367
H          1.85637        0.14117        0.46626
H          0.87110        0.94122       -1.74163
H          1.84028       -3.64670       -4.26478
H          1.90139       -4.35396       -2.62629
H          0.72497       -3.07470       -3.01338
H          4.60708       -2.16863       -3.78659
H          4.69940       -2.87056       -2.14469
H          4.17540       -3.87493       -3.51699
H         -2.49444       -1.08397       -1.23952
