16

N          0.96602        0.06683        0.29146
C          0.37554        0.86028        1.24956
N          0.84144        2.09877        1.39213
C          0.23817        2.84906        2.33712
C         -0.80568        2.43116        3.12523
N         -1.38322        3.22673        4.06606
C         -2.39901        2.66986        4.75211
C         -2.81602        1.38078        4.50208
N         -2.23531        0.60074        3.56115
C         -1.21659        1.11580        2.86054
N         -0.64204        0.34823        1.93569
H          0.32474       -0.65213       -0.01405
H          1.40361        0.63632       -0.41884
H          0.63661        3.85292        2.45197
H         -2.86912        3.28820        5.50812
H         -3.63431        0.92921        5.05194
