56

C          0.12424        1.13414       -1.34184
C          0.49745       -0.23397       -0.81965
C         -0.43103       -0.87492        0.14959
C          0.49832       -2.05693        0.46427
C         -0.60372       -3.60046        0.44766
C         -1.62367       -3.51962        1.57798
C         -2.50120       -4.75261        1.56696
C         -1.61998       -5.94670        1.67108
C         -1.06987       -6.15561        2.88868
C         -0.62835       -7.51793        3.19728
O         -0.55314       -7.90389        4.35565
C         -0.26963       -8.34814        2.03416
C         -0.29468       -7.84298        0.78123
C         -0.91194       -6.45981        0.37988
C         -1.86601       -6.79108       -0.76302
C          0.10312       -5.27027       -0.00953
F          1.04466       -5.59724        1.01624
C          1.16408       -5.27426       -1.55375
O          1.95740       -6.47076       -1.60375
C          2.32918       -3.78911       -1.95092
C          1.88469       -2.08815       -1.00518
C          3.15624       -1.18858       -0.95561
C          0.85984       -1.43997       -1.76583
C          0.62306       -2.93903       -1.34227
O         -0.26126       -3.48579       -2.01757
C          1.85192       -3.68973        0.17840
O          3.07316       -3.14604        0.75363
H         -0.24872        1.75194       -0.51082
H         -0.61155        1.13209       -2.14080
H          1.03474        1.64162       -1.69112
H          1.35431        0.05021       -0.18716
H         -0.66830       -0.28264        1.03638
H         -1.36861       -1.16592       -0.34013
H          0.97567       -1.91056        1.44480
H         -1.33439       -3.44873       -0.36227
H         -2.28005       -2.65423        1.41238
H         -1.13061       -3.35861        2.53829
H         -3.12599       -4.81929        0.66917
H         -3.20226       -4.72404        2.41085
H         -0.23873       -5.48837        3.16391
H          0.03696       -9.35507        2.28615
H          0.04441       -8.49710       -0.01741
H         -1.33344       -7.31657       -1.56712
H         -2.66739       -7.45899       -0.42133
H         -2.32047       -5.90102       -1.20036
H          0.48905       -5.38634       -2.41323
H          2.81023       -6.29490       -1.17308
H          2.24051       -3.59050       -3.03268
H          3.37068       -4.06333       -1.73430
H          3.02783       -0.21776       -1.44926
H          3.48616       -0.99150        0.06777
H          3.97386       -1.67938       -1.49310
H          1.15543       -1.23583       -2.79414
H          1.34019       -3.79332        1.13668
H          2.31458       -4.64301       -0.05112
H          3.40087       -3.80253        1.39629
