21

C          1.08558       -0.15914        0.03968
N          0.54296        0.79304       -0.90379
C         -0.89839        0.78230       -1.13295
C         -1.81861        1.03463        0.07355
O         -1.97291        2.41929        0.35317
C          1.30101        2.00394       -1.19716
C          1.06063        3.23765       -0.31601
O          1.17619        2.94817        1.07340
H          0.75558       -1.17351       -0.20999
H          0.78425        0.04275        1.07098
H          2.18058       -0.17588        0.00806
H         -1.15099        1.48512       -1.93637
H         -1.14545       -0.21377       -1.52342
H         -2.81701        0.65179       -0.16417
H         -1.48605        0.51748        0.97829
H         -1.22359        2.69823        0.90777
H          2.37116        1.76377       -1.16432
H          1.10974        2.29363       -2.23861
H          1.80038        4.00813       -0.55552
H          0.07550        3.67039       -0.50250
H          0.87616        2.03691        1.19117
