28

N          2.34575       -0.37998        0.21756
C          0.96160       -0.16201        0.16595
C          0.15467       -1.31104        0.04462
C         -1.23565       -1.22947       -0.04673
C         -1.84289        0.02462       -0.06863
N         -3.30725        0.12243       -0.11649
O         -3.95305       -0.93529       -0.11768
O         -3.81138        1.25316       -0.14667
C         -1.06238        1.18480       -0.04254
C          0.34576        1.10551        0.04556
C          1.04523        2.42927        0.09035
O          0.40388        3.44248        0.36906
C          2.49087        2.60438       -0.13584
C          3.22950        3.26689        0.85208
C          4.60761        3.41551        0.70669
C          5.24284        2.91902       -0.43154
C          4.50010        2.29056       -1.43394
C          3.11864        2.13975       -1.29457
H          2.62131       -1.30377        0.53885
H          2.88746        0.33805        0.69054
H          0.61271       -2.29926        0.04935
H         -1.81937       -2.14659       -0.09391
H         -1.54218        2.16345       -0.08353
H          2.73019        3.66212        1.73450
H          5.18356        3.92116        1.47785
H          6.31890        3.03188       -0.54267
H          5.00051        1.91550       -2.32357
H          2.54885        1.64525       -2.07670
