50

N          0.81990       -0.13267        0.38225
C          0.28734       -1.07718       -0.51598
C          0.72550       -2.39591       -0.39486
C          0.15493       -3.40706       -1.16213
C         -0.91301       -3.14737       -2.04223
C         -1.40990       -4.28536       -2.84898
C         -2.07573       -5.32091       -2.16663
C         -2.54111       -6.44922       -2.83699
C         -2.40902       -6.56205       -4.22157
N         -2.74523       -7.79787       -4.80650
C         -1.73983       -5.53629       -4.93048
C         -1.23063       -4.41078       -4.25238
C         -0.49035       -3.37569       -5.03151
O          0.12699       -2.46338       -4.49063
C         -0.46234       -3.43928       -6.50161
C          0.12434       -2.39425       -7.23177
C          0.17019       -2.44857       -8.62524
C         -0.36397       -3.54714       -9.29431
C         -0.94817       -4.58686       -8.56917
C         -0.99993       -4.52974       -7.16849
C         -1.63206       -5.62242       -6.41359
O         -2.10087       -6.57214       -7.03731
C         -1.41581       -1.82193       -2.11658
C         -0.80522       -0.79472       -1.36982
C         -1.25330        0.61486       -1.54141
O         -0.71447        1.53829       -0.93531
C         -2.32754        0.93274       -2.49420
C         -2.70423        2.26880       -2.69831
C         -3.71206        2.58345       -3.61056
C         -4.34784        1.56693       -4.31942
C         -3.97695        0.23703       -4.11266
C         -2.96189       -0.08076       -3.19738
C         -2.58249       -1.48821       -2.98380
O         -3.26397       -2.35470       -3.52231
H          0.58733        0.83015        0.10541
H          1.80935       -0.24641        0.57430
H          1.52648       -2.64549        0.29723
H          0.55767       -4.41552       -1.07259
H         -2.22314       -5.25990       -1.08882
H         -3.00483       -7.24965       -2.26470
H         -2.79992       -7.73476       -5.83145
H         -3.55829       -8.25177       -4.40511
H          0.54793       -1.53349       -6.71684
H          0.62470       -1.63509       -9.18610
H         -0.32723       -3.59551      -10.38022
H         -1.36469       -5.44105       -9.10048
H         -2.21121        3.06933       -2.14906
H         -3.99869        3.62093       -3.76709
H         -5.13312        1.80797       -5.03231
H         -4.48168       -0.55063       -4.66952
