18

C          1.05394        0.09257        0.19991
C          0.37531       -0.52230        1.39546
O         -0.53857        0.04934        1.98457
C          0.81834       -1.86966        1.84179
C          2.13422       -2.31070        1.65349
C          2.50928       -3.58739        2.08131
C          1.57331       -4.42748        2.68627
C          0.26854       -3.97917        2.87049
O         -0.67813       -4.77215        3.44790
C         -0.11404       -2.70578        2.46441
H          0.49318        0.97876       -0.11343
H          1.05508       -0.61453       -0.63450
H          2.07203        0.39868        0.44992
H          2.88453       -1.67219        1.19614
H          3.53362       -3.92656        1.94481
H          1.87792       -5.41870        3.00823
H         -0.27917       -5.62862        3.67224
H         -1.13710       -2.37222        2.62221
