98

C          0.92913       -0.86534        1.01110
C          0.29299        0.32016        1.73008
C          0.56579        1.66029        1.05249
C          0.00652        1.79308       -0.35904
C         -1.46769        2.13660       -0.61198
C         -2.08815        3.14862        0.38122
C         -1.56632        4.57966        0.30327
C         -1.72933        2.60282       -2.07421
O         -1.15264        1.86347       -3.14095
C          0.24109        1.91824       -3.40739
C          0.90817        3.23030       -3.80561
C          0.86371        4.47995       -2.93246
N          1.66108        4.49992       -1.71170
C          1.79446        5.45716       -0.75087
O          2.42252        5.19086        0.27768
N          1.23065        6.69297       -0.88345
C          1.06419        7.39113       -2.09822
C         -0.23303        7.83312       -2.37322
C         -0.58001        8.16545       -3.67583
C          0.36524        8.04105       -4.69572
C          1.68810        7.60086       -4.42931
C          2.63299        7.27479       -5.42760
N          2.39468        7.53938       -6.77848
C          2.80396        8.66316       -7.40388
O          2.14903        9.04800       -8.37762
N          3.85563        9.40870       -7.03169
C          4.81881        9.45374       -5.94026
C          6.12274        8.65565       -6.11344
C          7.11532        8.91709       -7.24794
O          7.86004       10.11866       -7.27130
C          7.17220       11.34659       -7.32811
C          6.50073       11.78258       -8.65333
C          6.34236       10.77641       -9.81748
C          5.08970        9.91861       -9.91727
C          5.22573       12.60851       -8.36130
C          5.46009       13.91091       -7.57921
C          6.42405       14.89701       -8.23912
C          6.02869       15.25518       -9.66282
C          3.82350        6.61504       -5.11732
C          4.25161        6.53892       -3.80587
C          3.40114        6.97489       -2.80300
C          2.07110        7.37007       -3.09034
H          0.39685       -1.10716        0.08615
H          0.89676       -1.75439        1.64839
H          1.97740       -0.66737        0.76197
H         -0.78425        0.15810        1.83329
H          0.71389        0.36690        2.74144
H          0.22919        2.48352        1.68813
H          1.65690        1.77725        0.97948
H          0.60172        2.56432       -0.83046
H          0.21586        0.85770       -0.88438
H         -2.01835        1.19514       -0.48064
H         -3.17210        3.17961        0.21436
H         -1.95777        2.78541        1.40622
H         -1.77484        5.04736       -0.66326
H         -2.05923        5.19917        1.06009
H         -0.49267        4.62162        0.49016
H         -2.81383        2.53698       -2.23354
H         -1.51355        3.65427       -2.21646
H          0.82846        1.40723       -2.64985
H          0.36048        1.26516       -4.28304
H          1.96708        3.00407       -3.99633
H          0.48348        3.52135       -4.77556
H          1.32300        5.20493       -3.58794
H         -0.13587        4.85951       -2.73425
H          2.18553        3.66883       -1.47521
H          1.45173        7.28734       -0.09178
H         -1.00002        7.80694       -1.60288
H         -1.60628        8.43619       -3.91428
H          0.03342        8.22885       -5.71486
H          1.44858        7.36893       -7.09832
H          3.86912       10.22021       -7.62900
H          5.02475       10.50857       -5.76652
H          4.31960        9.15235       -5.01983
H          6.66992        8.72952       -5.16606
H          5.86641        7.60526       -6.24292
H          7.88593        8.14060       -7.13877
H          6.69313        8.70196       -8.22214
H          6.51944       11.44765       -6.46521
H          7.94594       12.09990       -7.12260
H          7.22669       12.48604       -9.08271
H          6.34706       11.37309      -10.74034
H          7.23354       10.14303       -9.88827
H          4.17373       10.51105       -9.86038
H          5.08019        9.39161      -10.87769
H          5.04785        9.13874       -9.16279
H          4.70230       12.83754       -9.29576
H          4.52673       12.01522       -7.76879
H          4.48970       14.40383       -7.43788
H          5.82633       13.68230       -6.57086
H          6.45514       15.81205       -7.63650
H          7.44252       14.49369       -8.23122
H          5.02442       15.68914       -9.68935
H          6.73059       15.98450      -10.07670
H          6.04228       14.37975      -10.31929
H          4.44310        6.21842       -5.91549
H          5.22808        6.13139       -3.56284
H          3.74598        6.89717       -1.77338
