19

O          1.17420        0.90234        0.00728
C          2.23545        0.28786       -0.01039
O          2.74773       -0.22046       -1.15413
C          3.12732        0.12300        1.23342
O          2.95257        1.24302        2.11347
C          2.85087       -1.17185        1.97719
C          2.04112       -1.16895        3.13125
C          1.76823       -2.34628        3.83276
C          2.28498       -3.55748        3.38733
C          3.07777       -3.58931        2.24200
C          3.36210       -2.40816        1.54500
Cl         4.37520       -2.53985        0.14938
H          3.60863       -0.67444       -1.04521
H          4.17680        0.17616        0.92743
H          2.34283        1.85998        1.66144
H          1.61920       -0.23634        3.50518
H          1.15171       -2.31247        4.72848
H          2.07211       -4.47431        3.93166
H          3.47553       -4.54184        1.89957
