17

N          1.07781       -0.04713       -0.06407
N          0.42774        1.08216        0.47066
C         -0.29737        2.00332       -0.26994
O         -0.60071        3.09088        0.21515
C         -0.68317        1.69612       -1.66058
C         -1.18969        0.45716       -2.05503
C         -1.53034        0.25557       -3.39066
C         -1.35799        1.30550       -4.28032
N         -0.88767        2.52202       -3.92578
C         -0.57537        2.69569       -2.61724
H          1.45182        0.18448       -0.98968
H          1.90597       -0.24628        0.50434
H          0.63247        1.38168        1.42387
H         -1.32787       -0.34206       -1.33157
H         -1.92502       -0.69633       -3.72872
H         -1.60635        1.19447       -5.33236
H         -0.21583        3.68837       -2.35769
