51

C          3.36670       -1.01708        0.09703
C          1.88105       -0.81718       -0.00443
C          0.77301       -1.89854        0.87891
C         -0.96059       -1.57841        1.05258
C         -1.65580       -0.08314        0.29244
S         -3.50380       -0.11037        0.87298
O         -4.02679       -1.33250        0.29000
O         -3.44728        0.02774        2.31519
N         -4.50324        1.10378        0.29224
C         -4.36176        2.49077        0.39149
O         -5.31232        3.24564        0.25135
N         -3.09574        2.95094        0.55663
C         -2.08101        2.13733        0.07916
C         -0.84576        1.71528        1.24061
C          0.12497        0.26400        0.88835
C         -0.25159       -0.79165       -0.79668
C         -1.57636       -0.25758       -1.86678
O         -1.95712       -1.14559       -2.83639
S         -3.34906       -0.93644       -3.65966
O         -4.45854       -0.78380       -2.73800
O         -3.09814        0.07015       -4.67636
C         -3.61911       -2.48028       -4.51476
C         -3.30544       -3.70543       -3.91778
C         -3.47894       -4.89029       -4.64882
C         -3.96082       -4.85368       -5.96641
C         -4.11520       -6.10326       -6.78631
C         -4.29067       -3.61872       -6.53823
C         -4.12222       -2.43641       -5.81795
C         -2.43898        1.19725       -1.42105
C         -0.36765        1.09629       -0.74153
C          1.36353        0.64174       -0.82911
H          3.61562       -1.62195        0.97182
H          3.76102       -1.47906       -0.80926
H          3.84260       -0.03823        0.23321
H          1.18882       -2.78293        1.36170
H         -1.60346       -2.25810        1.60635
H         -5.39132        0.76000       -0.05974
H         -2.94482        3.94604        0.65301
H         -0.75096        2.21089        2.20130
H          0.83765        0.07251        1.70743
H          0.20949       -1.71569       -1.17897
H         -2.93649       -3.75723       -2.89575
H         -3.23189       -5.84502       -4.18632
H         -5.15196       -6.21130       -7.12232
H         -3.46191       -6.05500       -7.66463
H         -3.84901       -7.00027       -6.21867
H         -4.67393       -3.57173       -7.55571
H         -4.38028       -1.48700       -6.28138
H         -3.29626        1.50964       -2.01956
H         -0.48782        2.05425       -1.28005
H          2.07399        1.30817       -1.30791
