17

C          1.14779        0.06383       -0.03528
C          0.46529        0.58637        1.20551
O         -0.41119        1.45368        1.10821
N          0.87529        0.09653        2.43326
C         -0.03155       -0.00597        3.47742
O         -1.28257        0.46761        3.28103
N          0.21129       -0.53409        4.63273
C          1.47563       -1.00416        4.84539
C          2.46117       -0.90986        3.95847
F          3.70789       -1.35230        4.20170
C          2.19408       -0.27567        2.65254
O          3.12795       -0.07115        1.88064
H          0.48280        0.21277       -0.89215
H          1.33338       -1.01036        0.05341
H          2.07721        0.60486       -0.22304
H         -1.36339        0.99962        2.46436
H          1.66163       -1.46256        5.81276
