48

C          0.75825        0.00253       -0.05771
O          0.24924       -0.71749        1.05817
C          0.70981       -1.99354        1.22653
C          0.38579       -2.57748        2.45079
C          0.81267       -3.87283        2.76070
C          1.55735       -4.62249        1.83770
C          2.00705       -6.00242        2.16651
Cl         0.68571       -7.02804        2.70350
C          3.28816       -6.46121        2.08825
C          4.39534       -5.52989        1.71479
C          5.16428       -5.79381        0.57414
C          6.18660       -4.92106        0.19436
C          6.45390       -3.77281        0.94095
O          7.45603       -2.98398        0.44723
C          7.48764       -1.64258        0.92058
C          5.72449       -3.52778        2.10412
C          4.70605       -4.40595        2.49299
C          3.61360       -7.89394        2.36724
C          4.57110       -8.21309        3.33830
C          4.92291       -9.54532        3.57622
C          4.32266      -10.58111        2.85893
O          4.74665      -11.83638        3.19710
C          4.00573      -12.92567        2.66100
C          3.38562      -10.27184        1.87406
C          3.04633       -8.93684        1.62082
C          1.84188       -4.03969        0.59352
C          1.43710       -2.73166        0.29448
H          0.35993        1.02058       -0.00789
H          0.42208       -0.43936       -1.00112
H          1.85083        0.06958       -0.01883
H         -0.19975       -2.01695        3.17614
H          0.55290       -4.28844        3.73174
H          4.96824       -6.67411       -0.03370
H          6.76996       -5.13136       -0.69865
H          6.51350       -1.15442        0.80536
H          7.82867       -1.60262        1.95974
H          8.20922       -1.09060        0.31056
H          5.92582       -2.66710        2.73297
H          4.14876       -4.19577        3.40342
H          5.05779       -7.42979        3.91444
H          5.67089       -9.77665        4.33099
H          2.94952      -12.86352        2.94439
H          4.12084      -12.98447        1.57389
H          4.41139      -13.84800        3.08789
H          2.90710      -11.04070        1.27758
H          2.32727       -8.72118        0.83307
H          2.39629       -4.59498       -0.16063
H          1.70054       -2.32716       -0.67657
