51

C          0.68649       -0.25334        0.03592
C          0.70041       -1.07961        1.31708
N          1.23980       -0.39144        2.50546
C          0.28129        0.29520        3.38304
C          0.04666       -0.45968        4.68343
C          2.59454       -0.14941        2.66675
C          3.27896       -0.43242        3.84445
C          4.65064       -0.13518        3.99477
C          5.43587        0.41705        2.96094
N          6.77287        0.74594        3.35190
N          7.64418        0.51147        2.49830
C          8.97256        0.70672        2.97768
C          9.74063        1.85226        2.67338
C          9.23365        3.09326        2.16856
N          9.04785        4.15400        1.73409
C         11.14277        1.84202        2.82238
C         11.81697        0.73265        3.31917
C         13.31660        0.73859        3.34307
C         11.06116       -0.36200        3.73390
C          9.65791       -0.37744        3.57057
C          8.94741       -1.54428        4.00654
N          8.41172       -2.50008        4.39414
C          4.76593        0.62051        1.73090
N          5.31986        0.87440        0.42378
S          6.34008        2.15027        0.10685
C          7.78218        1.22355       -0.41700
O          5.79776        2.78986       -1.07361
O          6.55318        2.88506        1.32549
C          3.37216        0.38699        1.64615
H          0.49088        0.80730        0.22150
H         -0.07578       -0.62881       -0.65468
H          1.63617       -0.34830       -0.50196
H         -0.33539       -1.37754        1.52498
H          1.24688       -2.01473        1.14867
H          0.60171        1.32357        3.58885
H         -0.68463        0.38316        2.86851
H          0.83703       -0.24773        5.40927
H         -0.89430       -0.14197        5.14395
H          0.00575       -1.54218        4.52573
H          2.76858       -0.91876        4.67029
H          5.12090       -0.36696        4.94998
H         11.71886        2.71732        2.51065
H         13.70131        0.70605        2.31700
H         13.68683        1.64876        3.82672
H         13.71745       -0.12149        3.88599
H         11.56499       -1.23069        4.15861
H          4.63958        0.84543       -0.33752
H          7.68124        1.00499       -1.48208
H          8.68400        1.80384       -0.23691
H          7.83276        0.27261        0.11616
H          2.87617        0.69299        0.73496
