17

F         -0.00500       -0.01900        1.31100
S          0.00100       -0.00600       -0.27500
F          1.45700       -0.60400       -0.20600
F         -0.61700       -1.43200       -0.22800
F         -1.44900        0.61600       -0.20300
F          0.61300        1.45000       -0.20900
C          0.72041        1.65399       -0.32971
C          2.08717        1.82738       -0.53112
C          2.64304        3.09109       -0.59949
C          1.82430        4.20126       -0.46819
I          2.69242        6.10228       -0.63067
C          0.45608        4.05268       -0.23713
C         -0.08207        2.77979       -0.17069
H          2.71720        0.96876       -0.63461
H          3.69527        3.21088       -0.75232
H         -0.16888        4.91227       -0.11293
H         -1.13055        2.65923        0.00553
