23

C          0.95081       -0.07219       -0.05859
C          0.78558       -0.42017        1.41133
O          1.13454        0.68769        2.25301
C          2.45903        0.94391        2.39740
O          3.35402        0.28792        1.87385
N          2.74926        2.07905        3.10639
C          1.93061        2.88042        3.91982
C          2.38976        4.16852        4.22063
C          1.63963        5.01931        5.03662
C          0.43797        4.57806        5.58414
C         -0.01307        3.28863        5.31289
C          0.72807        2.44410        4.48041
H          0.44911        0.87175       -0.29454
H          0.53830       -0.86328       -0.69127
H          2.00603        0.05448       -0.31967
H         -0.26851       -0.64144        1.60996
H          1.36137       -1.31066        1.68664
H          3.70674        2.37427        2.97300
H          3.32328        4.53659        3.80269
H          1.99432        6.02554        5.24409
H         -0.14330        5.23449        6.22638
H         -0.93988        2.93237        5.75557
H          0.35975        1.43549        4.32351
