32

C          0.97284       -0.12233       -0.09343
C          0.61239        0.29167        1.32493
C          1.04085        1.72087        1.67043
C          0.39676        2.83101        0.82764
C         -1.13897        2.89847        0.90761
C         -1.71777        3.14684        2.31149
C         -1.21086        4.39845        3.01759
C         -1.72689        3.89359       -0.08174
O         -2.73500        3.66654       -0.74015
O         -1.04435        5.06972       -0.08454
C         -1.61128        6.11855       -0.88332
C         -1.10619        6.02733       -2.30992
H          0.43983        0.47784       -0.83638
H          0.70338       -1.17048       -0.25904
H          2.04818       -0.01858       -0.26995
H         -0.46352        0.16255        1.48302
H          1.10823       -0.39500        2.02191
H          0.83187        1.90081        2.73147
H          2.13036        1.79589        1.56238
H          0.83307        3.78805        1.13920
H          0.69754        2.71104       -0.22074
H         -1.52164        1.92698        0.56708
H         -2.81106        3.21461        2.24263
H         -1.50619        2.27995        2.94825
H         -1.47858        5.30621        2.46956
H         -1.66377        4.47232        4.01186
H         -0.12593        4.37915        3.15185
H         -2.70677        6.10140       -0.84382
H         -1.29157        7.06665       -0.43856
H         -1.41482        5.08680       -2.77680
H         -1.49020        6.85745       -2.90964
H         -0.01192        6.05129       -2.33221
