36

C          2.33753        0.07296       -0.12812
C          0.83639        0.05588       -0.02307
C          0.21117       -1.20369        0.08549
C         -1.17790       -1.29914        0.20345
S         -1.93393       -2.90947        0.11811
O         -1.48842       -3.50462       -1.13219
O         -1.66201       -3.54734        1.38854
C         -3.69866       -2.71046       -0.02811
C         -4.52892       -3.08540        1.03086
C         -5.90099       -2.85238        0.93880
C         -6.43495       -2.24960       -0.20201
C         -5.60406       -1.89801       -1.26736
C         -4.23262       -2.14031       -1.19083
C         -1.95129       -0.14812        0.28233
C         -1.34354        1.09659        0.12198
C          0.03720        1.21488       -0.06906
N          0.58267        2.45469       -0.52513
S          0.34216        3.91731        0.28771
O          0.51317        3.65252        1.70445
O          1.27391        4.81502       -0.37920
C         -1.40924        4.46360       -0.09375
F         -1.85935        3.96160       -1.28096
F         -2.29220        4.04514        0.86056
F         -1.53259        5.81788       -0.16696
H          2.77045       -0.60888        0.61393
H          2.65156       -0.24624       -1.12615
H          2.76031        1.05952        0.08091
H          0.80947       -2.11452        0.04948
H         -4.12080       -3.54803        1.92677
H         -6.55580       -3.13717        1.75927
H         -7.50453       -2.06008       -0.26288
H         -6.02869       -1.43422       -2.15500
H         -3.58979       -1.86589       -2.02487
H         -3.02962       -0.17942        0.40421
H         -2.00866        1.94648        0.07482
H          1.51119        2.43430       -0.94739
