32

C          0.99173        0.01784       -0.02939
C          0.77016       -1.34723       -0.65615
O          1.24764       -2.38290        0.21418
C          2.59048       -2.58377        0.22748
O          3.39607       -2.00919       -0.49349
C          2.97164       -3.66025        1.21476
C          2.42311       -3.44254        2.62618
C          0.93103       -3.74231        2.85321
C          0.38250       -5.04190        2.26110
C          0.76366       -6.28399        3.02971
O         -0.04192       -7.13370        3.38739
O          2.10650       -6.35123        3.21946
C          2.58398       -7.46968        3.98048
C          2.36242       -7.23635        5.46433
H          0.58111        0.04856        0.98523
H          0.51986        0.80114       -0.62877
H          2.05937        0.24430        0.05385
H         -0.30377       -1.51669       -0.78691
H          1.23438       -1.42277       -1.64572
H          2.70923       -4.63705        0.80033
H          4.06739       -3.64053        1.28138
H          3.01147       -4.05677        3.31771
H          2.60830       -2.40359        2.92869
H          0.74585       -3.73272        3.93526
H          0.34267       -2.91019        2.44940
H         -0.71325       -4.98312        2.29815
H          0.64491       -5.17608        1.20855
H          2.11976       -8.40174        3.63956
H          3.65791       -7.54962        3.78193
H          1.29477       -7.21761        5.70487
H          2.83428       -8.02561        6.05586
H          2.77303       -6.26804        5.76889
