12

O          2.16190        0.05253        0.00033
C          0.93699        0.02818        0.00064
C          0.13941        1.28273        0.00046
C         -1.20030        1.21678       -0.00031
C         -1.87518       -0.06103       -0.00067
C         -1.15858       -1.19200        0.00052
N          0.21224       -1.14067        0.00123
H          0.68848        2.21432        0.00107
H         -1.80341        2.11849       -0.00038
H         -2.95988       -0.07902       -0.00169
H         -1.61407       -2.17661        0.00073
H          0.75625       -1.99448        0.00164
