84

O          5.61105        2.26271        0.13672
C          5.06061        1.16785        0.04317
C          3.57641        1.15606        0.04595
C          2.89782        2.36983        0.09900
C          1.50519        2.39344        0.08624
C          0.72534        1.21378        0.03780
C         -0.70850        1.22724        0.00988
C         -1.46554        2.42214       -0.02399
C         -2.85699        2.42455       -0.08108
C         -3.55755        1.22261       -0.08273
C         -2.86737        0.01669       -0.01006
C         -3.57923       -1.17773        0.04141
C         -2.89998       -2.39128        0.07271
C         -1.50857       -2.41248        0.05213
C         -0.73132       -1.23083        0.02046
C          0.70121       -1.24373       -0.00759
C          1.45533       -2.43929       -0.05674
C          2.84576       -2.44336       -0.10962
C          3.54792       -1.24269       -0.09588
C          2.86109       -0.03575       -0.01331
C          1.42442       -0.02171        0.00774
C          5.02607       -1.28417       -0.18261
O          5.55138       -2.39523       -0.26213
N          5.70999       -0.06396       -0.12032
C          7.14799       -0.08186       -0.21876
C          7.79425       -0.91092       -1.14738
C          9.19078       -0.91779       -1.26092
C          9.98887       -0.11530       -0.44124
N         11.38570       -0.16444       -0.64181
N         12.03495        0.40054        0.26203
C         13.41995        0.40816        0.00002
C         14.29972        0.25735        1.07835
C         15.68314        0.31675        0.89010
C         16.20326        0.53357       -0.38434
C         15.34252        0.69115       -1.46854
C         13.95980        0.63394       -1.27555
C          9.34421        0.70760        0.49216
C          7.94609        0.73002        0.59723
C         -1.43089        0.00460        0.00854
C         -5.06124       -1.19193        0.06377
O         -5.60959       -2.28904        0.16225
N         -5.71586        0.03804       -0.08129
C         -7.15458        0.04559       -0.13852
C         -7.83697        0.83450       -1.07483
C         -9.23667        0.81483       -1.14874
C         -9.99878        0.02981       -0.27813
N        -11.40202        0.04463       -0.43929
N        -12.01068       -0.47768        0.51722
C        -13.40311       -0.52949        0.30648
C        -14.24600       -0.34687        1.40922
C        -15.63343       -0.44761        1.27743
C        -16.19472       -0.73873        0.03580
C        -15.37092       -0.92955       -1.07164
C        -13.98373       -0.83060       -0.93496
C         -9.31542       -0.74809        0.66628
C         -7.91584       -0.74657        0.73065
C         -5.03728        1.25959       -0.17578
O         -5.56627        2.36451       -0.28965
H          3.44391        3.31157        0.14023
H          1.04685        3.37834        0.12218
H         -0.98904        3.39896       -0.02590
H         -3.38517        3.37634       -0.12429
H         -3.44473       -3.33412        0.10514
H         -1.04972       -3.39744        0.07109
H          0.97830       -3.41554       -0.07291
H          3.37191       -3.39577       -0.16272
H          7.22465       -1.54274       -1.82524
H          9.66024       -1.55628       -2.00595
H         13.89969        0.09659        2.07635
H         16.35170        0.19998        1.73900
H         17.27901        0.58546       -0.53187
H         15.74390        0.86664       -2.46317
H         13.29805        0.77616       -2.12613
H          9.92400        1.35017        1.15009
H          7.50248        1.37677        1.35072
H         -7.29429        1.44912       -1.78954
H         -9.73760        1.41685       -1.90357
H        -13.81324       -0.12887        2.38244
H        -16.27255       -0.30513        2.14486
H        -17.27356       -0.82280       -0.06773
H        -15.80453       -1.16356       -2.04036
H        -13.35071       -0.99999       -1.80222
H         -9.86569       -1.37536        1.36313
H         -7.43879       -1.36085        1.49096
