18

O          1.25357       -0.23128       -0.02066
C          0.42854       -1.18527        0.49074
N         -0.54386       -1.60055       -0.33408
C         -1.32188       -2.58871        0.16095
C         -2.39041       -3.06643       -0.58918
C         -3.19764       -4.10892       -0.12820
C         -2.92640       -4.69643        1.10101
C         -1.87115       -4.21537        1.87584
C         -1.07736       -3.16187        1.44466
N         -0.09923       -2.70746        2.25157
C          0.63673       -1.69914        1.76178
O          1.61091       -1.20015        2.57898
H          0.94741       -0.21630       -0.94690
H         -2.60386       -2.61377       -1.55498
H         -4.03109       -4.46205       -0.73064
H         -3.53524       -5.52078        1.46405
H         -1.66059       -4.66962        2.84183
H          1.98698       -0.44763        2.08746
