41

C          0.98743       -0.19070       -0.04869
C          0.42551        0.14846        1.32620
C          1.15843        1.26010        2.11332
C          2.52625        0.83190        2.63568
C          1.32042        2.53044        1.25341
O          1.99418        2.64713        0.24047
N          0.56336        3.52356        1.77901
C         -0.11265        3.09804        2.86760
O         -0.97158        3.75065        3.43597
N          0.30851        1.81778        3.18499
C         -0.39477        1.00147        4.15194
N          0.13618        1.03816        5.49947
C          0.54323       -0.12081        6.14323
O          0.67229       -1.22438        5.63985
N          0.71772        0.14837        7.45879
C          0.28944        1.39968        7.76176
O          0.20829        1.85016        8.89515
C         -0.06355        2.13617        6.45604
C          0.98438        3.23825        6.27763
C         -1.49499        2.69892        6.54700
C         -2.58197        1.67727        6.87130
H          0.76278        0.59925       -0.77194
H          0.52009       -1.10815       -0.42289
H          2.06811       -0.35091       -0.02494
H         -0.63153        0.41661        1.19750
H          0.43456       -0.77351        1.92141
H          2.44454       -0.02216        3.31513
H          3.19869        0.55410        1.81659
H          3.01277        1.64697        3.18463
H          0.44383        4.43071        1.36252
H         -1.44476        1.30596        4.18042
H         -0.39078       -0.03423        3.80394
H          0.93938       -0.55013        8.14738
H          0.89352        3.74266        5.31440
H          0.89122        3.99903        7.06148
H          2.00235        2.83456        6.34112
H         -1.53234        3.48130        7.31606
H         -1.76587        3.18846        5.60900
H         -2.46618        1.27898        7.88346
H         -3.56575        2.15574        6.81660
H         -2.58283        0.83913        6.16946
