28

O          1.11147       -0.20161       -0.17270
C          2.29384       -0.10096        0.14863
C          2.87974        1.16316        0.74630
O          3.57601        0.80592        1.94070
C          3.82803        1.81336       -0.28618
O          3.08901        2.30138       -1.41758
C          4.63800        2.99232        0.33312
O          5.45750        2.54434        1.42174
C          5.54046        3.71128       -0.71520
O          4.77070        4.24160       -1.80401
C          6.37339        4.86041       -0.07866
O          7.25476        4.37905        0.94001
C          7.22081        5.60835       -1.12295
O          6.43311        6.27555       -2.10351
H          3.00322       -0.92537       -0.03334
H          2.06342        1.84658        1.00481
H          2.90918        0.46922        2.57237
H          4.54056        1.06133       -0.64835
H          2.48409        1.60566       -1.74244
H          3.92480        3.72848        0.72569
H          4.92747        1.90471        1.94732
H          6.24020        2.97172       -1.12503
H          4.04321        3.60485       -1.98160
H          5.68165        5.58079        0.37571
H          6.75202        3.71291        1.45679
H          7.84869        6.35823       -0.62951
H          7.90177        4.91650       -1.63134
H          5.71570        5.65106       -2.34735
