59

C          1.46405        0.15008       -0.91996
C          1.57625       -0.19764        0.54724
O          1.94765        0.97478        1.29632
C          2.92078        0.80453        2.22723
O          3.68953       -0.14516        2.27211
C          2.89862        1.85794        3.31358
C          2.05969        3.09897        3.05429
N          0.63196        3.13639        3.35571
C         -0.26391        2.12822        3.63803
C         -1.53518        2.67533        3.58539
C         -1.42904        4.06793        3.39481
C         -2.36832        5.11215        3.27889
C         -1.92499        6.41977        3.07178
C         -0.56562        6.69163        2.97135
C          0.38312        5.66682        3.06306
C         -0.06828        4.34968        3.27436
C         -2.75388        1.81907        3.62760
C         -2.46119        0.48828        2.87707
N         -2.06889        0.62179        1.45430
C         -3.15962        0.76789        0.48227
C         -4.05027        2.00076        0.68555
C         -2.59613        0.73818       -0.94075
C         -2.22444        1.90526       -1.63213
C         -1.81451        1.84921       -2.96747
C         -1.73972        0.62400       -3.62418
C         -2.05346       -0.54778       -2.93999
C         -2.47160       -0.49201       -1.60752
C         -1.29905       -0.19557        3.65277
C         -0.02406        0.66449        3.85262
H          0.80906        1.01349       -1.06611
H          1.06638       -0.69885       -1.48429
H          2.44509        0.41287       -1.32602
H          0.59790       -0.52167        0.91674
H          2.27170       -1.03219        0.68296
H          2.61674        1.38380        4.25818
H          3.94198        2.18721        3.40809
H          2.49266        3.89297        3.67794
H          2.15881        3.41839        2.00914
H         -3.43157        4.90423        3.35253
H         -2.64944        7.22559        2.98784
H         -0.23448        7.71506        2.81176
H          1.43859        5.89884        2.96792
H         -3.61500        2.34590        3.21856
H         -3.00034        1.60217        4.67522
H         -3.33577       -0.16980        2.94772
H         -1.42810        1.41183        1.35326
H         -3.81696       -0.10699        0.57435
H         -3.45975        2.90789        0.85897
H         -4.68644        2.18499       -0.18810
H         -4.72703        1.85843        1.53227
H         -2.27111        2.87784       -1.14815
H         -1.56334        2.76513       -3.49645
H         -1.43453        0.58243       -4.66636
H         -1.98377       -1.50667       -3.44655
H         -2.71884       -1.41678       -1.09098
H         -1.02437       -1.14449        3.17306
H         -1.67447       -0.47573        4.64708
H          0.72260        0.26875        3.17867
H          0.35729        0.50703        4.86899
