32

O          1.02725        0.02622       -0.08887
C          2.25610       -0.01308       -0.01129
C          3.08174       -1.12364       -0.63553
N          3.82822       -1.84654        0.38541
C          4.78618       -1.25767        1.01479
C          5.49283       -2.06080        2.06184
C          5.80570       -3.39830        1.79480
C          6.47074       -4.16329        2.75365
C          6.81192       -3.59854        3.98268
C          6.48134       -2.27176        4.26034
C          5.81713       -1.50137        3.30411
C          5.22654        0.15285        0.78682
C          6.60695        0.42400        0.80605
C          7.05892        1.74867        0.77369
N          8.50033        2.02947        0.80588
O          8.85452        3.21626        0.79742
O          9.27319        1.06261        0.84137
C          6.14683        2.80723        0.73400
C          4.77737        2.53300        0.68961
C          4.30814        1.21050        0.67176
N          2.92172        1.04948        0.54292
H          3.73069       -0.72344       -1.42285
H          2.39270       -1.82355       -1.12093
H          5.53203       -3.84577        0.84200
H          6.71638       -5.20142        2.54415
H          7.32581       -4.19820        4.73033
H          6.73319       -1.84231        5.22699
H          5.54210       -0.47937        3.54833
H          7.32052       -0.39724        0.86301
H          6.48077        3.84363        0.72252
H          4.08132        3.36841        0.62878
H          2.30924        1.83634        0.72180
