9

N          2.09597        0.06400       -0.13486
C          0.75680       -0.02929       -0.06123
N          0.00069       -1.10014       -0.01738
N         -1.29800       -0.64984        0.06107
N         -1.34386        0.67571        0.05903
N         -0.06387        1.06304       -0.02638
H          2.59354        0.88371        0.19423
H          2.61107       -0.80095        0.01467
H          0.16512        2.04547       -0.06555
