36

O          1.93214       -0.53074       -0.35130
S          3.36516       -0.34016       -0.34044
O          4.20830       -1.14893        0.51128
O          3.84868       -0.56821       -1.86044
C          3.83886        1.37480       -0.13342
C          3.13075        2.41082       -1.01199
N          1.68217        2.57018       -0.87274
C          1.14209        2.29305        0.45305
C          1.22469        3.46440        1.43577
N          0.42941        4.60330        0.99469
C         -1.00864        4.49555        1.31668
C         -1.91462        3.47764        0.62261
S         -2.39053        2.04585        1.60663
O         -3.26455        2.45276        2.67679
O         -2.73082        0.95795        0.71088
O         -0.98757        1.60784        2.27028
C          0.81398        4.98366       -0.37404
C          1.13525        3.84340       -1.39937
H          3.13955       -1.07397       -2.31568
H          3.71773        1.61057        0.92968
H          4.91642        1.40770       -0.32924
H          3.61606        3.37396       -0.80656
H          3.33943        2.17596       -2.06297
H          0.11652        1.98664        0.26474
H          1.57346        1.42088        0.94035
H          2.27263        3.77876        1.53163
H          0.93423        3.15251        2.44402
H         -1.11021        4.40430        2.40553
H         -1.42665        5.48665        1.09299
H         -2.87852        3.96139        0.41527
H         -1.53612        3.14291       -0.34370
H         -0.80282        0.67764        2.00429
H          1.73695        5.57174       -0.26856
H          0.08282        5.67888       -0.80480
H          1.78378        4.24871       -2.18810
H          0.19310        3.59518       -1.90313
