10

Cl         1.19512        0.63329       -0.52838
C          2.80640        0.23819       -0.09149
C          3.38952        0.55657        1.06936
Cl         5.03611        0.07056        1.33861
C          2.76033        1.29374        2.14883
Cl         1.84533        0.29352        3.24820
C          2.84942        2.62769        2.30735
Cl         2.07999        3.47639        3.61186
Cl         3.76078        3.62867        1.21536
H          3.30374       -0.31471       -0.87940
