29

N          2.35967       -0.04728        0.10207
C          0.96119       -0.01213        0.15521
C          0.22437       -1.18959       -0.01344
C         -1.16966       -1.15929       -0.09837
C         -1.83867        0.06044       -0.06802
C         -1.10331        1.24489        0.03718
S         -2.00511        2.77310       -0.00320
O         -2.71088        2.80345       -1.27181
O         -2.73845        2.83574        1.24881
C         -0.88201        4.14941       -0.02623
C         -0.18947        4.44784       -1.20252
C          0.70751        5.51242       -1.20834
C          0.87472        6.29108       -0.05896
C          0.11707        6.04903        1.09180
N          0.37088        6.76742        2.26605
C         -0.72532        4.93697        1.11946
C          0.29088        1.21403        0.13602
H          2.76108       -0.92824        0.40974
H          2.81495        0.75053        0.53499
H          0.73386       -2.14795       -0.07927
H         -1.72840       -2.08547       -0.20704
H         -2.92374        0.08803       -0.14686
H         -0.32882        3.85038       -2.10101
H          1.28238        5.73749       -2.10343
H          1.59820        7.10289       -0.07366
H         -0.40330        6.75938        2.92484
H          0.71478        7.70919        2.10231
H         -1.26646        4.69214        2.03057
H          0.87230        2.12804        0.19641
