35

C          1.02336       -0.22233        0.03730
C          0.62560       -0.43816        1.48906
C          1.11922        0.63661        2.42870
O          0.56384        0.90576        3.48655
O          2.24565        1.23271        1.96160
C          2.74243        2.36495        2.69208
C          2.32652        3.65205        1.98037
C          0.81870        3.93356        2.01075
C          0.26931        4.30802        3.39338
C          0.71689        5.67886        3.89996
O          0.12221        6.70525        3.09050
C          0.89850        7.26740        2.12940
O          2.09603        7.06052        1.97755
C          0.10974        8.21781        1.25974
C         -1.37440        7.89663        1.17874
H          0.70246        0.76324       -0.31708
H          0.56440       -0.98343       -0.60077
H          2.10909       -0.28764       -0.09040
H         -0.46894       -0.44372        1.54731
H          0.99910       -1.40276        1.84512
H          2.44076        2.35210        3.74434
H          3.83515        2.28770        2.67858
H          2.88109        4.49375        2.40566
H          2.62423        3.57417        0.92689
H          0.59439        4.73198        1.29523
H          0.27207        3.06039        1.63857
H         -0.82585        4.30857        3.32173
H          0.53889        3.54624        4.13087
H          0.33496        5.82503        4.91629
H          1.80637        5.76811        3.95920
H          0.25779        9.23299        1.63952
H          0.52902        8.15789        0.24878
H         -1.86065        8.02008        2.15224
H         -1.87078        8.56509        0.46893
H         -1.53704        6.86417        0.85089
