22

Cl        -2.74013        0.75086       -0.06160
C         -1.22716       -0.06717       -0.03311
C         -1.19400       -1.45188        0.10139
C          0.03465       -2.11710        0.13177
C          1.24697       -1.40909        0.02352
C          2.51872       -2.15571        0.06770
C          2.88648       -2.94546       -1.03918
C          4.08159       -3.66700       -1.03772
Cl         4.49532       -4.63437       -2.39855
C          4.93759       -3.61434        0.05767
C          4.58942       -2.84501        1.16771
C          3.38612       -2.12912        1.17901
Cl         3.00074       -1.24935        2.61916
C          1.18258       -0.00892       -0.13348
Cl         2.60852        0.95114       -0.34488
C         -0.04636        0.65865       -0.15199
H         -2.11720       -2.01994        0.18657
H          0.04188       -3.20026        0.24673
H          2.23549       -2.99481       -1.91023
H          5.87120       -4.17142        0.05750
H          5.25681       -2.81063        2.02566
H         -0.08020        1.73915       -0.26342
