18

Cl         1.01183       -0.40646       -0.23375
C          2.74497       -0.04791       -0.07602
C          3.14430        1.11298       -0.94562
C          4.05146        0.93406       -1.99852
C          4.43509        2.01429       -2.79778
C          3.92086        3.29670       -2.56317
C          4.32609        4.45552       -3.43140
Cl         6.00240        4.94012       -3.10224
C          3.02051        3.47806       -1.50539
C          2.63806        2.39801       -0.70540
H          2.96314        0.17202        0.97405
H          3.29021       -0.95700       -0.34848
H          4.47088       -0.04803       -2.20603
H          5.14619        1.84891       -3.60559
H          4.24094        4.18780       -4.48974
H          3.68773        5.32753       -3.25724
H          2.60668        4.46180       -1.29455
H          1.93327        2.56617        0.10748
