39

C          1.08125        0.20322       -0.35944
C          0.82716       -1.29008       -0.48987
C          1.44261       -2.11558        0.64338
C          0.94150       -1.78728        2.05527
C         -0.57829       -1.83240        2.24976
C         -1.24549       -3.15627        1.86535
C         -0.95907       -4.31673        2.82517
C         -1.81639       -4.31388        4.09501
C         -3.31450       -4.55421        3.88357
C         -3.65037       -6.02188        3.66155
O         -3.84478       -6.73635        4.64848
N         -3.69417       -6.53285        2.37282
C         -3.62103       -5.77010        1.13696
C         -3.94216       -7.95690        2.20797
H          0.57667        0.62125        0.51646
H          0.70091        0.72710       -1.24232
H          2.15202        0.41328       -0.27577
H         -0.25098       -1.47222       -0.55670
H          1.25574       -1.63468       -1.43886
H          1.27055       -3.17831        0.43494
H          2.53177       -1.98302        0.62619
H          1.42062       -2.47674        2.76018
H          1.29425       -0.78738        2.33619
H         -0.80710       -1.59160        3.29453
H         -1.03430       -1.03221        1.65454
H         -2.32179       -2.97632        1.79618
H         -0.93520       -3.45085        0.85746
H         -1.10628       -5.26459        2.29813
H          0.09746       -4.30650        3.11565
H         -1.42521       -5.08582        4.77032
H         -1.68438       -3.35727        4.61384
H         -3.83333       -4.27068        4.81025
H         -3.75318       -3.90702        3.12523
H         -2.66987       -5.99773        0.64618
H         -4.44044       -6.07632        0.47950
H         -3.69915       -4.69771        1.29085
H         -3.72879       -8.52095        3.11954
H         -4.99498       -8.09403        1.94304
H         -3.30984       -8.34335        1.40284
