35

C          0.84023        0.25658       -0.10717
O          0.27417        0.53853       -1.38977
C          0.87779        1.57150       -2.04545
O          1.71103        2.31171       -1.53433
N          0.53009        1.68759       -3.36217
C         -0.34839        0.89761       -4.05050
N         -0.40896        0.83673       -5.36034
C         -1.34565       -0.12868       -5.64189
C         -1.72864       -0.67588       -6.87367
C         -2.71231       -1.68024       -6.89184
C         -3.01753       -2.32484       -8.20153
O         -2.24210       -2.20087       -9.14581
C         -4.21460       -3.17130       -8.38924
C         -4.04504       -4.45658       -8.91461
C         -5.15320       -5.28478       -9.09005
C         -6.42715       -4.82301       -8.75648
C         -6.59840       -3.52989       -8.25791
C         -5.49290       -2.69705       -8.07819
C         -3.31486       -2.10332       -5.69528
C         -2.94849       -1.55797       -4.45728
C         -1.94086       -0.59466       -4.47573
N         -1.28331        0.07514       -3.47777
H          0.45879       -0.71418        0.22209
H          0.53610        1.01879        0.61508
H          1.93198        0.18644       -0.16488
H          1.08814        2.32141       -3.91679
H         -1.23848       -0.34688       -7.78490
H         -3.05228       -4.81057       -9.18458
H         -5.02385       -6.28647       -9.49256
H         -7.29056       -5.46900       -8.89810
H         -7.59591       -3.16978       -8.01816
H         -5.63683       -1.68481       -7.70974
H         -4.06066       -2.89523       -5.69396
H         -3.40411       -1.89885       -3.53356
H         -1.41657       -0.03464       -2.48301
