17

C          0.97342       -0.05497       -0.08204
C          0.46846       -1.28355        0.68968
C          0.99130       -1.22289        2.13041
C         -1.06534       -1.29011        0.67769
C          0.98481       -2.54902        0.01723
O          1.68924       -2.61620       -0.97694
O          0.58784       -3.68148        0.63164
H          0.61964        0.87557        0.37575
H          0.62723       -0.06923       -1.12211
H          2.06897       -0.02211       -0.10372
H          0.67323       -0.30062        2.62925
H          0.62550       -2.06566        2.72783
H          2.08655       -1.25988        2.15417
H         -1.45118       -1.37552       -0.34473
H         -1.46934       -2.13413        1.24813
H         -1.46932       -0.37065        1.11585
H          0.99151       -4.39414        0.09312
