17

C          0.89537       -0.25577       -0.06896
S          0.66223       -0.89082        1.60981
C          1.14044       -2.56667        1.35002
N          0.20947       -3.53927        1.39300
C          0.61581       -4.81363        1.21982
N          1.85762       -5.25984        0.98999
C          2.76713       -4.27129        0.95577
N          4.10986       -4.42938        0.74072
C          4.61199       -3.21555        0.80362
N          3.64513       -2.28195        1.05334
C          2.44931       -2.93796        1.13647
H          0.48587        0.75623       -0.12851
H          0.38468       -0.88355       -0.80390
H          1.96044       -0.20660       -0.31203
H         -0.15982       -5.57198        1.27417
H          5.65497       -2.95471        0.68126
H          3.78704       -1.28602        1.15891
