32

C          1.22036        0.11949        0.07770
C          0.50613        1.48612        0.00903
C          1.03271        2.36225       -1.14155
C          1.65420        1.83867       -2.28582
C          2.10119        2.67855       -3.31570
C          1.90196        4.05802       -3.24860
O          2.34573        4.77982       -4.32883
C          1.78805        5.97893       -4.47702
N          1.30961        7.02888       -4.60613
C          1.32408        4.60084       -2.10298
C          0.92514        3.76258       -1.05650
C         -1.03155        1.37804        0.07046
C         -1.81696        2.52989        0.25718
C         -3.21098        2.46862        0.35213
C         -3.87139        1.24488        0.29800
O         -5.23544        1.31967        0.42533
C         -5.90293        0.18053        0.28584
N         -6.49811       -0.81010        0.16841
C         -3.11561        0.08241        0.14488
C         -1.71692        0.15206        0.02381
H          0.97114       -0.51980       -0.77808
H          0.94082       -0.42656        0.98594
H          2.30937        0.24046        0.09261
H          0.80348        1.99279        0.93985
H          1.81945        0.77065       -2.40126
H          2.59806        2.24329       -4.18014
H          1.17628        5.67150       -1.98385
H          0.52393        4.23249       -0.16247
H         -1.36547        3.51113        0.34657
H         -3.77509        3.39027        0.47872
H         -3.57698       -0.90220        0.12321
H         -1.18464       -0.78936       -0.08809
