12

O          1.01097       -0.07387       -0.20122
C          0.56493       -0.64317        1.02131
C          1.11467       -2.05573        1.18898
C          2.63116       -2.14795        1.15251
Br         3.42427       -1.34485        2.73855
H          1.83292        0.41281       -0.01435
H          0.84487        0.01568        1.84916
H         -0.52877       -0.68009        0.98881
H          0.72506       -2.48723        2.11845
H          0.73136       -2.66878        0.36358
H          2.95493       -3.19274        1.15733
H          3.06828       -1.64758        0.28476
