22

Br        -1.58961        0.00297       -0.04336
C          0.30012       -0.00305       -0.01324
C          0.99555        1.20266        0.01274
C          2.39350        1.19580        0.03701
C          3.11156       -0.01206        0.03268
C          4.58158       -0.01626        0.05777
C          5.31926       -0.63954       -0.96291
C          6.71734       -0.64233       -0.94205
C          7.39301       -0.02218        0.10534
Br         9.28272       -0.02547        0.13701
C          6.68495        0.60061        1.12957
C          5.28703        0.60352        1.10302
C          2.38649       -1.21526        0.00433
C          0.98842       -1.21325       -0.01696
H          0.46449        2.15078        0.01215
H          2.92426        2.14611        0.04747
H          4.80442       -1.11964       -1.79317
H          7.26410       -1.12717       -1.74638
H          7.20612        1.08335        1.95188
H          4.74636        1.08592        1.91542
H          2.91124       -2.16898        0.01117
H          0.45154       -2.15789       -0.03365
