21

C          0.28937        0.07804       -0.05773
N          0.47679       -1.26665       -0.57441
C          0.87696       -1.37263       -1.89533
O          0.99402       -0.39954       -2.64502
C          1.35439       -2.74229       -2.32730
N          2.82655       -2.81532       -2.12886
C          0.70534       -3.87949       -1.55969
S          0.46089       -5.36253       -2.33341
N          0.41857       -3.60603       -0.22031
C          0.14603       -4.70320        0.70926
C          0.45078       -2.32194        0.32935
O          0.44898       -2.12642        1.54403
H         -0.24442        0.07667        0.89647
H         -0.27422        0.68206       -0.77588
H          1.27552        0.53311        0.08304
H          1.13275       -2.84336       -3.39677
H          3.25695       -2.06907       -2.68056
H          3.06195       -2.61510       -1.15690
H         -0.68297       -5.31176        0.33585
H          1.04295       -5.32709        0.78425
H         -0.12121       -4.35306        1.70957
