27

C          0.88212       -0.63821       -0.77035
N          0.53237        0.72150       -1.17327
C          1.59049        1.64217       -1.22518
O          2.76253        1.30978       -1.02532
C          1.35328        3.08638       -1.39747
C          2.17429        4.00096       -0.72610
C          1.99231        5.36791       -0.92058
C          1.00136        5.77625       -1.79660
N          0.20290        4.92301       -2.47184
C          0.39411        3.59674       -2.24869
O         -0.39394        2.76992       -3.00251
C         -1.27408        2.04362       -2.24293
C         -2.63261        2.29327       -2.47489
C         -3.60201        1.53857       -1.82378
C         -3.21061        0.52253       -0.95936
C         -1.85095        0.26348       -0.74724
C         -0.85161        1.02526       -1.37897
H          0.26298       -1.36719       -1.30326
H          0.74527       -0.73496        0.31132
H          1.92574       -0.86936       -1.00482
H          2.95857        3.64760       -0.06004
H          2.61612        6.09343       -0.40992
H          0.82291        6.83045       -1.99021
H         -2.92658        3.07720       -3.16896
H         -4.65643        1.73662       -1.99743
H         -3.96211       -0.07474       -0.44826
H         -1.59793       -0.53344       -0.05326
