29

N          2.50387       -0.13077        0.42902
C          1.10494       -0.07876        0.41049
C          0.35773       -1.25248        0.29172
C         -1.02988       -1.20611        0.12541
C         -1.68831        0.02403        0.01588
C         -3.17487        0.09112       -0.21795
C         -3.67379       -0.71303       -1.40359
O         -4.30533       -1.75997       -1.26435
C         -3.48531       -0.16599       -2.77164
C         -4.59666       -0.12047       -3.62126
C         -4.46703        0.39195       -4.91316
C         -3.22642        0.84338       -5.36301
C         -2.11341        0.77811       -4.52556
C         -2.23990        0.27287       -3.23001
C         -0.93560        1.20197        0.10433
C          0.45067        1.14626        0.27175
H          2.87356       -0.98627        0.83172
H          2.93752        0.69756        0.82425
H          0.85095       -2.22047        0.32428
H         -1.58633       -2.13956        0.05327
H         -3.68721       -0.27350        0.68157
H         -3.50933        1.12763       -0.35070
H         -5.56345       -0.48315       -3.27844
H         -5.33150        0.43206       -5.57111
H         -3.12319        1.23442       -6.37236
H         -1.14165        1.10926       -4.88460
H         -1.34847        0.20049       -2.61537
H         -1.41536        2.17404        0.01254
H          1.01724        2.07351        0.28819
