40

C          1.72904        0.74027        0.24826
C          0.42578        0.56468       -0.04344
C         -0.47482        0.04470        1.06055
C         -0.13731        0.61624       -1.46945
O          0.53852       -0.45836       -2.13408
C          0.00038        1.85150       -2.37153
O         -0.98769        2.76890       -1.90813
C         -2.02625        2.01974       -1.42743
O         -3.05863        2.50605       -1.01139
C         -1.67572        0.54955       -1.52119
C         -2.19635       -0.06142       -2.81674
O         -3.61841       -0.14517       -2.72706
C         -1.69809       -1.47860       -2.95847
O         -2.43578       -2.38543       -3.79039
C         -1.22748       -1.84518       -4.33437
C         -1.42003       -0.50534       -5.04133
C         -0.99513       -0.28279       -6.48515
O         -2.34040       -0.61357       -6.15199
C         -1.70292        0.69187       -4.09938
C         -2.81498        1.60791       -4.66806
C         -0.34114        1.48666       -3.85989
O         -0.29525        2.68993       -4.64410
H          2.10128        0.54978        1.25466
H          2.47731        1.00083       -0.49085
H         -1.25097        0.77833        1.30122
H         -0.94685       -0.89818        0.75885
H          0.06776       -0.17458        1.98552
H          1.49906       -0.30317       -2.06472
H          0.98437        2.33027       -2.31274
H         -2.14935        0.04904       -0.67613
H         -3.90165       -0.84272       -3.35249
H         -1.27481       -1.92512       -2.06927
H         -0.31638       -2.41959       -4.41205
H         -0.40627       -1.04881       -6.97455
H         -0.81437        0.72051       -6.84710
H         -3.74367        1.05531       -4.85462
H         -3.05500        2.42680       -3.98421
H         -2.52829        2.04628       -5.63016
H          0.48950        0.88159       -4.24131
H         -0.86299        3.35516       -4.20588
