28

C          1.01084        0.14297       -0.27359
C          0.45048       -1.24401       -0.54702
C          1.16149       -2.40340        0.16917
S          0.86847       -2.62236        1.97850
S          1.63552       -0.95165        2.87869
C          0.68087       -0.69125        4.43339
C         -0.83700       -0.46006        4.38919
C         -1.73481       -1.55872        3.84375
C          1.12698       -1.67719        5.49758
O          1.80380       -1.39833        6.47781
O          0.73270       -2.94840        5.30615
C          0.74605       -3.71839       -0.48056
O          1.50023       -4.59762       -0.87048
O         -0.59076       -3.88847       -0.57800
H          0.61394        0.55491        0.65721
H          0.71218        0.83007       -1.07276
H          2.10423        0.13831       -0.22952
H         -0.62613       -1.25017       -0.33873
H          0.54440       -1.41409       -1.62916
H          2.24411       -2.31606        0.01657
H          1.08638        0.26719        4.78867
H         -1.17011       -0.25573        5.41613
H         -1.04024        0.45723        3.82188
H         -1.51298       -2.53566        4.27873
H         -2.77954       -1.32918        4.08259
H         -1.67489       -1.62359        2.75530
H          1.15802       -3.44744        6.03409
H         -0.69474       -4.79036       -0.94710
