24

N          1.15920       -0.38050        0.59290
C          0.45516        0.64382        0.86730
N          0.91924        1.74115        1.49108
N         -0.87290        0.75039        0.52979
S         -1.85343       -0.31841       -0.29590
O         -2.48163       -1.17747        0.68868
O         -2.67208        0.51494       -1.15468
C         -0.84567       -1.30723       -1.36408
C          0.02811       -0.70429       -2.27054
C          0.87072       -1.50695       -3.04722
C          0.79597       -2.90338       -2.98209
N          1.74822       -3.69210       -3.63917
C         -0.08281       -3.48941       -2.06627
C         -0.91555       -2.69974       -1.27016
H          2.12971       -0.23159        0.86981
H          0.24341        2.16484        2.11632
H          1.81092        1.61738        1.95365
H         -1.26700        1.68253        0.47909
H          0.09956        0.37728       -2.33537
H          1.60253       -1.03076       -3.69408
H          1.45263       -4.65128       -3.79068
H          2.13320       -3.26628       -4.47537
H         -0.11524       -4.56957       -1.95046
H         -1.58998       -3.17726       -0.56316
