14

N          1.16411       -0.06865        0.31050
C          2.31971       -0.05362        0.20517
C          3.74706       -0.03505        0.06803
C          4.43069        1.18407       -0.00293
C          5.82111        1.20218       -0.15559
C          6.53499        0.00126       -0.23806
C          7.95810        0.01981       -0.41387
N          9.10903        0.03482       -0.56178
C          5.85246       -1.21785       -0.15714
C          4.46204       -1.23596       -0.00449
H          3.88684        2.12600        0.05509
H          6.34017        2.15796       -0.21428
H          6.39610       -2.15979       -0.21705
H          3.94277       -2.19174        0.05229
