20

C         -1.31908       -2.63583        0.00450
C         -0.62921       -1.30378        0.00064
C         -1.38533       -0.12928        0.01773
C         -0.75608        1.11720        0.01676
O         -1.60698        2.19531        0.03257
C          0.64721        1.22712        0.00118
C          1.23344        2.59251        0.00469
O          0.55531        3.61116       -0.01418
O          2.56999        2.67305        0.04134
C          1.39961        0.04208       -0.01714
O          2.76709        0.06378       -0.04030
C          0.76657       -1.20992       -0.01664
H         -1.91389       -2.74922        0.91650
H         -1.97537       -2.72361       -0.86734
H         -0.60030       -3.46094       -0.03313
H         -2.47255       -0.17441        0.03143
H         -1.07250        3.01969        0.01684
H          2.77063        3.62991        0.03890
H          3.11655       -0.84134       -0.02861
H          1.35759       -2.12246       -0.03148
