62

C          1.00925       -0.21927       -0.36872
C          0.70771       -1.18336        0.76824
C          1.19176       -0.67583        2.12914
C          0.54164        0.62949        2.60403
C         -0.98298        0.57595        2.75063
C         -1.48603       -0.46649        3.75261
C         -1.08723       -0.18339        5.20489
C         -1.75194        1.04593        5.83301
C         -3.27893        1.03718        5.81011
C         -3.86382       -0.10037        6.61106
O         -4.16741       -0.00440        7.79418
O         -3.98758       -1.22181        5.83753
O         -4.42037       -2.31029        6.71782
C         -3.43010       -3.25402        6.71172
O         -2.42419       -3.23795        6.01242
C         -3.72887       -4.34593        7.70978
C         -3.19699       -4.02625        9.10520
C         -3.81382       -2.78930        9.76631
C         -5.34089       -2.81341        9.89189
C         -5.87182       -3.86029       10.87466
C         -5.48689       -3.60922       12.33671
C         -5.98400       -2.27950       12.91701
C         -7.50329       -2.09153       12.89785
C         -8.24203       -3.12537       13.73362
H          0.46572        0.72294       -0.25264
H          0.70955       -0.65815       -1.32535
H          2.08000        0.00290       -0.41745
H         -0.36660       -1.39568        0.79499
H          1.20407       -2.13808        0.55713
H          1.03051       -1.46218        2.87575
H          2.27757       -0.52578        2.08619
H          0.99345        0.91512        3.56081
H          0.79712        1.43855        1.91036
H         -1.34460        1.56968        3.03896
H         -1.43709        0.37151        1.77421
H         -2.57527       -0.53412        3.66465
H         -1.11863       -1.46018        3.47370
H         -1.32657       -1.05818        5.81456
H          0.00021       -0.07704        5.28309
H         -1.41009        1.12071        6.87332
H         -1.39501        1.95128        5.32873
H         -3.65023        1.96953        6.25416
H         -3.68287        1.02030        4.79310
H         -4.80124       -4.56455        7.70979
H         -3.24648       -5.26056        7.34226
H         -3.34864       -4.89885        9.75089
H         -2.11160       -3.87337        9.04808
H         -3.35690       -2.64929       10.75199
H         -3.51967       -1.90576        9.19439
H         -5.68595       -1.81616       10.18618
H         -5.79915       -2.99263        8.91380
H         -6.96352       -3.90243       10.78620
H         -5.51617       -4.85498       10.58221
H         -5.86679       -4.43814       12.94467
H         -4.39673       -3.64888       12.44217
H         -5.62960       -2.19981       13.95209
H         -5.51924       -1.44473       12.37949
H         -7.73480       -1.09456       13.29140
H         -7.88197       -2.11099       11.87015
H         -7.88263       -3.11940       14.76756
H         -9.31395       -2.90528       13.74537
H         -8.11619       -4.13420       13.32981
