47

C          0.73594        0.31186       -0.25915
N          0.21282        0.92275        0.95105
C         -1.24893        0.90872        1.02525
C         -1.89922       -0.43201        1.21606
C         -2.85731       -0.66596        2.12579
C         -3.30113       -1.98357        2.41496
C         -3.60855       -3.09544        2.75317
C         -3.96709       -4.45206        3.22312
C         -3.87451       -4.50435        4.75630
C         -5.40204       -4.76771        2.78410
C         -3.00659       -5.48742        2.62138
C          0.95494        0.62344        2.18895
C          0.81701       -0.76942        2.78867
C         -0.07611       -0.92564        3.86757
C         -0.39844       -2.18626        4.35691
C          0.15199       -3.31590        3.76365
C          1.08699       -3.19968        2.72741
C          1.62612       -4.35551        2.13823
C          2.60687       -4.26848        1.15278
C          3.08244       -3.02391        0.76784
C          2.53275       -1.86770        1.32541
C          1.48569       -1.91694        2.27347
H          0.26880        0.75227       -1.14733
H          0.56990       -0.76807       -0.30283
H          1.80795        0.51034       -0.36242
H         -1.56331        1.60227        1.81546
H         -1.64718        1.34048        0.09724
H         -1.51824       -1.25972        0.62305
H         -3.24194        0.13846        2.74472
H         -4.52636       -3.75620        5.22284
H         -4.16772       -5.48881        5.13839
H         -2.85363       -4.30566        5.10362
H         -5.49879       -4.73274        1.69251
H         -5.70881       -5.76545        3.11671
H         -6.11254       -4.04271        3.19864
H         -2.98428       -5.42729        1.52725
H         -1.98103       -5.33755        2.97480
H         -3.30122       -6.50676        2.89634
H          2.01897        0.85041        2.04714
H          0.64447        1.36018        2.94333
H         -0.57705       -0.05904        4.29442
H         -1.12431       -2.29018        5.15857
H         -0.15196       -4.29508        4.12471
H          1.28008       -5.34023        2.44483
H          3.01011       -5.17121        0.70294
H          3.87537       -2.94502        0.02924
H          2.94513       -0.91406        1.00972
