60

C          0.86880        0.20633       -0.10696
O          0.44647        0.57636       -1.42075
C          0.81515        1.85667       -1.73559
C          2.16894        2.15566       -1.83401
C          2.60637        3.46101       -2.13332
C          3.95471        3.79235       -2.21653
N          4.97496        2.87059       -1.94676
N          4.38888        5.00548       -2.53882
C          3.47819        5.96742       -2.69460
N          3.98418        7.23056       -2.88664
C          3.17215        8.39773       -2.56250
C          4.12989        9.58603       -2.32129
N          5.08178        9.77531       -3.42264
C          5.65931       11.01835       -3.59125
O          5.40787       11.99403       -2.89351
O          6.49272       11.04368       -4.65944
C          7.03791       12.31606       -5.05215
C          6.11811       13.07653       -6.03742
C          4.78775       13.50099       -5.41155
C          6.85323       14.30859       -6.57251
O          5.83712       12.22648       -7.15922
C          5.75376        8.56432       -3.91720
C          4.79490        7.37971       -4.09774
N          2.15973        5.75584       -2.59350
C          1.69975        4.50140       -2.36236
C          0.32352        4.16389       -2.32128
O         -0.70389        5.07273       -2.51981
C         -0.46285        6.13511       -3.43302
C         -0.12599        2.84731       -2.01820
O         -1.49190        2.68463       -1.99404
C         -2.01453        1.37733       -2.18845
H          0.32659       -0.70148        0.17377
H          0.63164        0.98448        0.62733
H          1.93867       -0.02518       -0.08959
H          2.89948        1.36249       -1.69337
H          4.88744        2.51533       -1.00045
H          5.84724        3.38737       -2.05034
H          2.48629        8.62882       -3.38751
H          2.57724        8.23961       -1.65536
H          4.72467        9.40825       -1.41610
H          3.55441       10.50460       -2.16397
H          7.28899       12.92318       -4.17412
H          7.98314       12.07679       -5.55419
H          4.94282       14.09292       -4.50360
H          4.20190       14.10736       -6.11193
H          4.16019       12.63551       -5.17637
H          7.76017       14.01529       -7.11362
H          6.23075       14.85339       -7.29174
H          7.13279       14.99389       -5.76617
H          5.15488       12.65976       -7.70003
H          6.51880        8.30845       -3.17286
H          6.27231        8.75820       -4.86114
H          5.38697        6.48593       -4.32832
H          4.13755        7.56733       -4.95757
H         -0.00137        6.98262       -2.91831
H          0.12397        5.81930       -4.30220
H         -1.43480        6.47553       -3.80530
H         -1.51548        0.84750       -3.00701
H         -1.98030        0.80722       -1.25512
H         -3.06907        1.47834       -2.46362
