47

C          0.73071        0.09710       -0.03941
O          0.20399        1.41261       -0.16707
C          0.92672        2.41449        0.42109
C          0.24809        3.63061        0.55105
C          0.86471        4.72530        1.15837
C          2.17502        4.60278        1.61327
O          2.70977        5.69420        2.31469
C          3.99607        6.11094        2.02271
O          4.72490        5.72085        1.12110
C          4.35484        7.20233        2.95979
C          5.28191        8.16478        2.55075
C          5.57992        9.24190        3.38951
C          4.96557        9.36301        4.63928
O          5.27524       10.49881        5.32698
C          4.34745       10.99913        6.29413
C          3.25959       11.87654        5.66407
C          2.08334       11.13740        5.01396
C          1.20431       10.32542        5.96957
C          0.54009       11.15075        7.02778
C         -0.35958       12.31888        6.70947
O         -0.89031       11.03114        7.04161
C          4.11840        8.35069        5.08336
C          3.79425        7.28381        4.24043
C          2.86731        3.40129        1.48464
C          2.24310        2.30835        0.87752
H         -0.00932       -0.60047       -0.44292
H          0.89576       -0.16444        1.01168
H          1.64936       -0.01674       -0.62368
H         -0.77470        3.71709        0.19250
H          0.32162        5.65757        1.27990
H          5.75535        8.09468        1.57344
H          6.27906       10.00578        3.05615
H          3.95426       10.22821        6.96140
H          4.94664       11.65294        6.94013
H          2.86610       12.55287        6.43179
H          3.72093       12.50699        4.89332
H          1.45711       11.88223        4.50759
H          2.44786       10.47985        4.21869
H          0.44684        9.79814        5.37587
H          1.78935        9.54489        6.46403
H          1.05166       11.12654        7.98092
H         -0.45937       13.10315        7.44971
H         -0.45172       12.65407        5.68473
H          3.68502        8.36251        6.07608
H          3.10283        6.52417        4.59798
H          3.88416        3.30207        1.85262
H          2.81136        1.39008        0.77697
