19

C          0.92794        0.03833        0.02468
O          0.66695        0.14716        1.41037
S          1.32439       -0.98826        2.37830
O          0.70266       -2.25636        2.05149
O          2.76617       -0.82530        2.35574
C          0.78461       -0.52696        4.00517
C          0.77084        0.82434        4.36410
C          0.32818        1.19005        5.63518
C         -0.09968        0.21073        6.53480
C         -0.08877       -1.13716        6.16801
C          0.35207       -1.51129        4.89849
H          0.43879        0.87081       -0.48731
H          0.52454       -0.89892       -0.36949
H          2.00301        0.09454       -0.16932
H          1.10670        1.58975        3.66901
H          0.31693        2.23738        5.92878
H         -0.44380        0.49831        7.52636
H         -0.42440       -1.89482        6.87324
H          0.35642       -2.56189        4.61679
