42

C          1.07529       -0.10759        0.27599
C          0.61264        1.32160        0.52665
C          1.38683        2.38162       -0.25725
C          1.07464        2.50118       -1.73223
O          1.18966        3.55301       -2.35001
O          0.72316        1.31325       -2.27931
C          0.41097        1.28915       -3.68192
C         -1.10576        1.20217       -3.86933
C         -1.87452        2.46713       -3.43170
C         -1.57922        3.64125       -4.37575
C         -3.40443        2.24405       -3.38423
C         -3.91168        1.13903       -2.44473
C         -3.48805        1.31789       -1.01180
C         -4.29089        1.50143        0.05434
C         -3.72476        1.66403        1.43896
C         -5.78933        1.55419       -0.04195
H          0.68975       -0.49808       -0.66987
H          0.70105       -0.76614        1.06650
H          2.16685       -0.17855        0.26140
H         -0.45839        1.39954        0.32030
H          0.74475        1.53196        1.59518
H          1.13358        3.35506        0.18296
H          2.46605        2.23674       -0.14628
H          0.86071        2.12371       -4.22805
H          0.86770        0.37626       -4.08096
H         -1.32740        0.98214       -4.92045
H         -1.44939        0.34513       -3.28073
H         -1.54694        2.76305       -2.42973
H         -1.93333        3.43105       -5.39074
H         -2.07779        4.55141       -4.02558
H         -0.51033        3.86219       -4.43370
H         -3.88447        3.18782       -3.09137
H         -3.76454        2.01918       -4.39662
H         -5.00361        1.10598       -2.52831
H         -3.56373        0.15959       -2.79027
H         -2.41455        1.26680       -0.84631
H         -4.04000        2.62126        1.86718
H         -4.07698        0.85722        2.08991
H         -2.63046        1.64389        1.44690
H         -6.10808        2.39469       -0.66638
H         -6.18334        0.62167       -0.45889
H         -6.24657        1.68594        0.94457
