36

C          0.51517        1.35987       -0.73646
C         -0.02072        1.78292        0.42180
C         -1.34942        1.30722        0.91762
C          0.78972        2.71768        1.25770
O          1.77232        3.31181        0.85555
O          0.34571        2.70481        2.54565
C          1.14341        3.39754        3.51750
C          1.85573        2.44064        4.48598
C          2.95501        1.59748        3.83568
F          3.60132        2.38379        2.93926
F          3.89073        1.31099        4.79060
C          2.47124        0.28001        3.22208
F          2.25794       -0.63418        4.21377
F          1.24832        0.44579        2.65778
C          3.43459       -0.26653        2.18255
F          3.75260        0.70930        1.28715
F          4.60291       -0.64693        2.75935
C          2.79776       -1.41658        1.42173
F          2.46183       -2.42541        2.27050
F          1.62482       -1.00195        0.86607
C          3.70903       -1.93066        0.33153
F          4.20439       -0.91031       -0.42466
F          4.79186       -2.55133        0.87683
C          2.93185       -2.87693       -0.56399
F          2.39379       -3.91461        0.11543
F          1.91460       -2.25057       -1.20633
F          3.72418       -3.40473       -1.53034
H         -0.00240        0.64990       -1.37457
H          1.49548        1.69155       -1.07062
H         -1.25801        0.82337        1.89546
H         -2.04570        2.14691        1.00367
H         -1.79570        0.57254        0.23804
H          1.85773        4.08935        3.05682
H          0.44737        4.01788        4.09337
H          2.31273        3.05002        5.27546
H          1.12890        1.78448        4.97841
