33

C          1.19112        0.79932       -0.74923
C          0.23815       -0.31852       -1.17349
C          0.89555       -1.62023       -1.72032
C          1.92688       -1.31005       -2.84274
C          3.23802       -1.63116       -2.77682
C          4.25731       -1.29152       -3.82914
C          3.76629       -0.25619       -4.83594
C          2.34107       -0.56418       -5.26817
C          1.39132       -0.57035       -4.06707
C         -0.19885       -2.50429       -2.35041
O         -1.27502       -2.08366       -2.77273
N          0.10017       -3.83419       -2.47005
C          0.84488       -4.50943       -1.55840
O          0.74220       -5.72472       -1.42358
N          1.61652       -3.76880       -0.72098
C          1.51364       -2.41223       -0.54741
O          1.95157       -1.90888        0.48537
H          1.86521        0.49125        0.05383
H          0.60899        1.65037       -0.37789
H          1.79695        1.15919       -1.58583
H         -0.39678       -0.57196       -0.31327
H         -0.44344        0.10444       -1.92360
H          3.65568       -2.14970       -1.91646
H          4.53291       -2.21639       -4.35055
H          5.16591       -0.91486       -3.34496
H          4.43165       -0.24125       -5.70648
H          3.80517        0.74472       -4.38691
H          2.00096        0.17672       -6.00105
H          2.31089       -1.54180       -5.76646
H          1.17736        0.46757       -3.78530
H          0.44649       -1.00796       -4.40455
H         -0.60764       -4.39644       -2.92312
H          2.03850       -4.27920        0.04276
