18

C          0.95560       -0.03638       -0.12464
O          0.40094       -1.28091       -0.54149
C          0.78295       -1.67561       -1.79415
C         -0.21128       -2.26519       -2.57720
C          0.08349       -2.72210       -3.86286
C          1.38554       -2.60712       -4.35488
C          1.71365       -3.09096       -5.71074
O          0.87079       -3.58474       -6.44997
C          2.39165       -2.04222       -3.56595
C          2.08830       -1.57906       -2.28148
H          0.44734        0.26153        0.79758
H          0.78035        0.74461       -0.87285
H          2.02192       -0.12826        0.10205
H         -1.22176       -2.36040       -2.18738
H         -0.69938       -3.16870       -4.47212
H          2.76351       -2.98437       -6.03069
H          3.41217       -1.96488       -3.93180
H          2.88748       -1.17211       -1.67002
