35

O          1.19606        0.97443        0.65749
C          2.39498        0.77715        0.47051
N          2.93410       -0.42308        0.84240
C          4.32102       -0.86288        0.90129
C          4.53472       -2.05787        1.85809
N          4.09906       -3.41717        1.51151
C          5.07451       -4.21993        0.75703
C          4.96842       -4.07959       -0.76781
O          3.63798       -4.34042       -1.22854
C          2.69784       -3.46421       -0.59341
C          2.75833       -3.59500        0.93918
C          3.22742        1.86420       -0.08734
C          2.99239        3.16202        0.38992
C          3.71784        4.24130       -0.11678
C          4.66952        4.02328       -1.11037
Cl         5.56474        5.35118       -1.73813
C          4.89256        2.73792       -1.60824
C          4.16440        1.65487       -1.10314
H          2.24407       -0.98698        1.32128
H          4.65550       -1.10578       -0.10975
H          4.92239       -0.01658        1.25203
H          5.60473       -2.09226        2.10292
H          4.04513       -1.80644        2.80829
H          4.87676       -5.27073        1.00961
H          6.10030       -4.02444        1.08907
H          5.28105       -3.08610       -1.10443
H          5.62708       -4.81137       -1.24710
H          1.69983       -3.74475       -0.94528
H          2.88472       -2.44284       -0.93585
H          2.44663       -4.61827        1.18905
H          2.01919       -2.95358        1.42639
H          2.23503        3.33207        1.15369
H          3.52781        5.24279        0.26043
H          5.62043        2.57785       -2.39978
H          4.31264        0.66821       -1.53069
