44

C          0.56470        0.33705        0.02558
O         -0.21215        1.52541        0.13062
C          0.34041        2.55390        0.84434
C         -0.53022        3.59017        1.16142
C         -0.06137        4.69384        1.86277
C          1.27272        4.75069        2.28039
C          2.17874        3.70569        2.01777
C          3.65914        3.74514        2.44313
O          4.36609        3.98597        1.22149
C          4.02214        4.97111        3.34559
C          3.47581        4.89155        4.76952
C          3.89500        3.60404        5.45477
C          3.60191        2.37895        4.59873
C          4.23889        2.46597        3.18182
C          4.15682        1.03275        2.56304
N          5.04831        0.56297        1.48457
C          4.64696       -0.79018        1.07662
C          5.17774        1.40696        0.30793
C          1.67911        2.64620        1.23668
H         -0.05094       -0.42409       -0.46324
H          0.84435       -0.04592        1.01345
H          1.44882        0.49792       -0.59974
H         -1.56672        3.54482        0.84254
H         -0.73260        5.52178        2.07929
H          1.57981        5.65552        2.79493
H          5.30082        4.12773        1.44682
H          5.11788        5.04760        3.41164
H          3.72398        5.91484        2.87218
H          2.38380        4.95989        4.77733
H          3.84018        5.74785        5.34899
H          3.37614        3.51370        6.41632
H          4.96814        3.64156        5.67773
H          2.51724        2.23814        4.51012
H          3.98481        1.50413        5.13843
H          5.31642        2.64391        3.32183
H          4.41608        0.35505        3.39044
H          3.11437        0.77713        2.35676
H          3.64094       -0.80191        0.64047
H          5.34449       -1.20228        0.33870
H          4.66176       -1.47435        1.93213
H          4.22011        1.70837       -0.12125
H          5.79193        2.27885        0.53489
H          5.72915        0.88855       -0.48688
H          2.36836        1.89544        0.88311
