19

C          1.24500        0.02996        0.23177
O          0.54934        1.25795        0.06981
C         -0.65217        1.42275        0.69916
C         -1.00240        2.76488        0.89307
C         -2.21867        3.10565        1.49537
C         -2.59382        4.52338        1.66744
O         -1.85987        5.44071        1.32117
C         -3.09591        2.11068        1.92694
C         -2.75257        0.77226        1.74087
C         -1.55142        0.43428        1.11120
O         -1.37043       -0.89913        0.88263
H          0.91546       -0.68526       -0.52747
H          1.15233       -0.38433        1.24028
H          2.30698        0.22208        0.04834
H         -0.32134        3.54986        0.56787
H         -3.57909        4.72014        2.12236
H         -4.04660        2.35879        2.39107
H         -3.43626       -0.01307        2.05467
H         -1.04681       -0.97793       -0.03019
