32

C          2.91056        0.56006        0.53449
C          1.41595        0.43702        0.47732
C          0.82492       -0.82397        0.62496
C         -0.54524       -0.97979        0.44139
C         -1.32545        0.12891        0.09768
S         -3.00621       -0.17139       -0.37689
O         -2.93724       -0.41042       -1.80328
O         -3.52109       -1.15526        0.55556
O         -3.81351        1.22503       -0.14476
C         -5.23081        1.17571        0.02892
C         -6.01457        0.79723       -1.23991
C         -6.11856       -0.68579       -1.48337
C         -5.60851       -1.41118       -2.54394
C         -5.78065       -2.81457       -2.37867
C         -6.48937       -3.11243       -1.23785
S         -6.96352       -1.70422       -0.39139
C         -0.76639        1.40161       -0.00340
C          0.61075        1.54913        0.18243
H          3.31563       -0.03219        1.36120
H          3.34271        0.19928       -0.40532
H          3.22167        1.59837        0.68280
H          1.43503       -1.69810        0.84288
H         -0.99096       -1.97021        0.51254
H         -5.48123        0.54859        0.89114
H         -5.52326        2.19668        0.30170
H         -7.03428        1.19566       -1.16206
H         -5.54749        1.27490       -2.11000
H         -5.05696       -0.96238       -3.36279
H         -5.38790       -3.56435       -3.05425
H         -6.75459       -4.09027       -0.86107
H         -1.37037        2.26163       -0.27923
H          1.06186        2.53156        0.05720
