21

C          1.43008        0.05363        0.46522
C          0.40949       -1.07185        0.55968
O         -0.92254       -0.64332        0.37716
C         -1.36736       -0.65194       -0.96266
C         -1.09143        0.64228       -1.71507
O         -1.02336       -1.81317       -1.68664
C          0.30603       -2.25380       -1.50379
C          1.29552       -1.65855       -2.49579
O          0.76157       -2.22976       -0.16792
H          1.18545        0.84834        1.17802
H          1.46212        0.52267       -0.51635
H          2.43729       -0.32011        0.67497
H          0.45148       -1.39059        1.60773
H         -2.45982       -0.69352       -0.88176
H         -1.65001        0.65800       -2.65705
H         -1.37854        1.50988       -1.11270
H         -0.04409        0.76741       -1.98352
H          0.27123       -3.31908       -1.76030
H          2.24779       -2.19772       -2.44937
H          0.90190       -1.71244       -3.51572
H          1.52922       -0.61471       -2.29441
