52

C          2.18205        0.16998       -1.77213
C          0.97882       -0.72576       -2.02771
O          0.89797       -1.72735       -1.00253
C         -0.39206       -0.00713       -2.19426
N         -0.99474        0.61661       -0.99378
C         -2.46994        0.73094       -1.13079
C         -3.42677        0.25911        0.02598
N         -2.98098        0.01352        1.40964
C         -4.11366       -0.14427        2.33637
C         -4.12290       -1.13554        3.53043
C         -3.03431       -0.94953        4.57958
O         -5.38839       -1.00422        4.20373
C         -1.82103       -0.84695        1.56965
C         -1.80383       -2.37390        1.37107
C         -2.50748       -2.88752        0.12959
O         -0.42626       -2.78346        1.27895
C         -0.37770        1.91780       -0.65325
C         -0.13682        2.17617        0.85421
C          0.84615        1.21705        1.52920
O          0.38931        3.50500        0.99153
H          2.21431        0.53265       -0.74356
H          2.20680        1.01986       -2.46017
H          3.10808       -0.40000       -1.90815
H          1.16558       -1.26186       -2.96692
H          1.76247       -2.17761       -0.98181
H         -0.34416        0.71350       -3.02023
H         -1.06215       -0.81380       -2.52305
H         -2.74999        1.75777       -1.40085
H         -2.80183        0.15254       -2.00584
H         -4.21171        1.02888        0.06745
H         -3.94207       -0.63958       -0.33518
H         -4.31824        0.85651        2.74397
H         -5.02364       -0.37736        1.76284
H         -4.10194       -2.16045        3.15036
H         -2.88318        0.11001        4.80903
H         -3.31499       -1.44470        5.51592
H         -2.08131       -1.38187        4.27221
H         -5.33096       -0.23172        4.79317
H         -1.04136       -0.47687        0.92557
H         -1.37163       -0.62370        2.54189
H         -2.21288       -2.87517        2.25081
H         -2.15802       -2.36956       -0.76881
H         -2.28157       -3.94906       -0.01901
H         -3.59145       -2.77834        0.21231
H         -0.05164       -2.32961        0.48848
H          0.58192        2.04936       -1.16019
H         -0.96938        2.75042       -1.05747
H         -1.09589        2.15963        1.38125
H          0.88416        0.23073        1.06448
H          1.86436        1.61866        1.55333
H          0.54659        1.06595        2.57331
H          0.65145        3.61340        1.92546
