9

C          1.03560        0.05537       -0.08212
O          0.57401        1.08777        0.77859
C          1.03560        0.90237        2.10987
H          0.65235        0.24783       -1.08779
H          0.66406       -0.91771        0.25341
H          2.12923        0.04869       -0.12001
H          0.66406       -0.04349        2.51584
H          2.12923        0.92291        2.14241
H          0.65235        1.72105        2.72483
