59

C          2.44327        1.22108       -1.28517
C          1.29812        1.34144       -2.27784
C          1.10815        0.13653       -3.19328
C          0.67561       -1.20591       -2.59987
O         -0.52352       -1.34624       -1.86618
C         -0.85343       -0.58929       -0.71129
C          0.05628       -0.58338        0.53034
O          0.37624       -1.87612        1.03258
C          1.68445       -2.32532        0.68461
C          1.86239       -3.82684        0.92504
O          1.09611       -4.67227        0.05639
C         -0.31114       -4.50812        0.20015
O         -0.70852       -4.60650        1.56335
C         -1.52158       -5.73089        1.83150
C         -3.02626       -5.43269        1.89032
O         -3.63109       -4.59722        0.90953
C         -3.26017       -3.21693        0.86728
C         -4.19817       -2.18091        1.51105
O         -4.00670       -1.83758        2.88189
C         -4.38193       -2.74258        3.89611
C         -5.86991       -2.96205        4.18437
C         -6.87094       -3.14815        3.04533
C         -6.65978       -4.38493        2.18069
H          2.55981        0.20930       -0.89259
H          2.27189        1.90197       -0.44281
H          3.39321        1.50236       -1.74707
H          0.37040        1.57845       -1.75812
H          1.50181        2.21568       -2.90843
H          0.38468        0.41487       -3.96769
H          2.06047       -0.04024       -3.71331
H          0.51738       -1.86138       -3.46875
H          1.50944       -1.67893       -2.09263
H         -1.10142        0.43147       -1.00794
H         -1.80834       -1.01364       -0.38316
H          0.95309        0.01492        0.39992
H         -0.50950       -0.08619        1.32910
H          1.88129       -2.13120       -0.35994
H          2.41675       -1.76450        1.27478
H          2.90972       -4.07672        0.72195
H          1.66269       -4.08728        1.96879
H         -0.61223       -3.54574       -0.21725
H         -0.80769       -5.25623       -0.42700
H         -1.30265       -6.55632        1.14850
H         -1.22993       -6.08406        2.82930
H         -3.53889       -6.40093        1.81843
H         -3.27067       -5.08351        2.88171
H         -2.25129       -3.03263        1.20367
H         -3.29719       -2.99581       -0.21007
H         -3.96931       -1.23677        0.99877
H         -5.23540       -2.37147        1.28317
H         -3.85658       -3.68103        3.80242
H         -3.95957       -2.32322        4.82065
H         -5.95148       -3.82295        4.86082
H         -6.21490       -2.09627        4.76366
H         -7.86687       -3.22928        3.49806
H         -6.91853       -2.24250        2.43240
H         -7.55972       -5.00819        2.18369
H         -6.48654       -4.10962        1.13450
H         -5.82480       -4.99987        2.52163
