26

C          0.81614       -0.10594        0.19048
C          0.68516       -1.23853       -0.81322
O          1.12488       -2.49016       -0.26454
C          2.46695       -2.65360       -0.17341
O          3.32728       -1.83812       -0.46368
C          2.75838       -3.98674        0.39261
C          2.04587       -5.11692       -0.01508
C          2.37706       -6.36713        0.50921
C          3.40947       -6.48728        1.44867
O          3.70489       -7.73508        1.92310
C          4.11975       -5.35659        1.87415
O          5.13872       -5.28315        2.78435
C          5.49410       -6.45966        3.49513
C          3.79418       -4.11001        1.32352
H          0.33465       -0.36712        1.13797
H          0.36012        0.80829       -0.20072
H          1.86576        0.10807        0.41393
H         -0.37069       -1.36636       -1.07441
H          1.22349       -1.01913       -1.74227
H          1.24911       -5.03309       -0.75003
H          1.82235       -7.23805        0.17122
H          3.15348       -8.39246        1.46863
H          4.64423       -6.86540        4.05333
H          5.94163       -7.20236        2.82769
H          6.25788       -6.18269        4.22887
H          4.35139       -3.22727        1.63279
