16

C          1.11751        0.02627       -0.07139
C          0.58918        0.62403        1.23806
C          1.15208        2.04052        1.40549
C         -0.95539        0.60386        1.28900
O         -1.43701       -0.73143        1.11100
C         -1.46206        1.14799        2.61475
N         -1.88239        1.59938        3.71457
H          0.72487        0.56724       -0.93906
H          0.83970       -1.02766       -0.16994
H          2.21125        0.07711       -0.10825
H          0.97810        0.00170        2.05548
H          0.76738        2.71338        0.63161
H          0.89572        2.46246        2.38233
H          2.24531        2.03472        1.33498
H         -1.37564        1.22045        0.48515
H         -1.36922       -0.94581        0.16557
