28

C          1.02010        0.02909       -0.19756
C          0.61594       -0.62029        1.09244
C          0.10952        0.09325        2.11342
C         -0.33699       -0.46636        3.44186
C         -1.86261       -0.34414        3.56119
C          0.33544        0.32317        4.57519
N          0.04443       -1.86752        3.61151
C          0.40745       -2.65023        2.51431
C          0.57709       -4.03098        2.70369
C          1.03187       -4.85112        1.67148
C          1.34702       -4.29499        0.43830
C          1.21142       -2.91942        0.24078
C          0.75137       -2.08139        1.27125
H          0.85118        1.11162       -0.17957
H          0.43943       -0.37166       -1.03522
H          2.08569       -0.12854       -0.39479
H         -0.01120        1.16762        1.99330
H         -2.21655       -0.72322        4.52733
H         -2.18972        0.69872        3.47405
H         -2.37279       -0.92136        2.78075
H          1.42832        0.24382        4.52017
H          0.07502        1.38722        4.53673
H          0.03357       -0.05923        5.55761
H         -0.48102       -2.36754        4.31942
H          0.36228       -4.47638        3.67136
H          1.15200       -5.91798        1.83742
H          1.71076       -4.92628       -0.36792
H          1.48097       -2.51584       -0.73072
