12

O         -1.88966        0.13498        0.12137
C         -0.67381        0.08842        0.03545
C          0.23068        1.26820       -0.15561
C          1.57393        0.69474        0.21863
C          1.43004       -0.75226       -0.17390
O          0.05641       -1.06586        0.05292
H          0.19795        1.57745       -1.20414
H         -0.05168        2.09377        0.50143
H          2.41536        1.19315       -0.26969
H          1.71628        0.77227        1.30353
H          1.65682       -0.92039       -1.23213
H          2.06337       -1.40560        0.43302
