38

C          1.04486       -0.39230       -0.24046
C          0.71465       -0.72165        1.20764
C          1.14128        0.37353        2.18861
C          0.46337        1.73267        1.98009
C         -1.06253        1.73165        2.13962
C         -1.57537        1.30787        3.52380
C         -1.09053        2.19277        4.68851
C         -1.52880        3.66842        4.60172
C         -3.02998        3.96205        4.45778
C         -3.91468        3.64219        5.66439
C         -3.49734        4.35203        6.94334
C         -1.38130        1.60646        6.05626
O         -0.85474        1.95769        7.09923
O         -2.31967        0.64424        6.07239
H          0.48498        0.47855       -0.59352
H          0.78535       -1.23581       -0.88775
H          2.11370       -0.18870       -0.36116
H         -0.35705       -0.92633        1.30269
H          1.23157       -1.65009        1.47885
H          0.95901        0.02226        3.21091
H          2.22682        0.51341        2.10957
H          0.90662        2.45296        2.67711
H          0.70944        2.11422        0.98253
H         -1.43680        2.73456        1.90383
H         -1.50655        1.07047        1.38632
H         -2.67187        1.29187        3.49811
H         -1.27910        0.26753        3.70744
H          0.00705        2.18374        4.65397
H         -1.13208        4.21953        5.46230
H         -1.03168        4.11476        3.73029
H         -3.13827        5.03254        4.23807
H         -3.43013        3.44240        3.57976
H         -4.94169        3.94595        5.42579
H         -3.95654        2.56368        5.83416
H         -3.51747        5.43823        6.81187
H         -4.18391        4.09536        7.75634
H         -2.49275        4.06607        7.26332
H         -2.39894        0.41255        7.02154
