12

O          1.41412       -0.03191       -0.55007
C          2.47688       -0.12534        0.04500
O          3.34862        0.91358        0.13695
C          2.98122       -1.29285        0.72085
O          4.13201       -1.16871        1.45785
C          4.39556       -2.38811        2.01082
Cl         5.75271       -2.65829        3.03421
C          3.43722       -3.29951        1.61919
Cl         3.34564       -4.94851        2.03162
C          2.52542       -2.59409        0.79197
Cl         1.15307       -3.25748        0.03667
H          4.14963        0.66743        0.64425
