33

C          2.56357       -0.10650       -0.04416
C          1.06777       -0.01621       -0.04573
C          0.28604       -1.10777        0.30702
C         -1.12806       -1.01123        0.30950
N         -1.77101       -2.21985        0.77351
O         -1.92418       -3.12653       -0.05556
O         -2.07413       -2.28098        1.97221
C         -1.86613        0.14970       -0.05113
N         -3.26036        0.25481        0.05271
C         -4.15932       -0.81656       -0.45779
C         -4.94857       -1.52175        0.66052
Cl        -6.55694       -0.78590        0.92005
C         -3.95452        1.50148        0.48272
C         -3.99098        1.70234        1.99980
Cl        -2.38589        2.05411        2.68636
C         -1.00589        1.19656       -0.48059
N         -1.51568        2.39195       -1.12569
O         -2.11054        2.24721       -2.20212
O         -1.27411        3.47661       -0.57603
C          0.41206        1.13414       -0.46502
H          2.91278       -0.70662        0.80295
H          2.91403       -0.56503       -0.97376
H          3.01775        0.88524        0.05246
H          0.76734       -2.04042        0.60433
H         -4.84537       -0.38755       -1.19945
H         -3.58758       -1.55613       -1.02573
H         -5.12656       -2.56858        0.40009
H         -4.43390       -1.48413        1.62277
H         -3.57010        2.39917        0.00321
H         -4.99340        1.46433        0.13293
H         -4.63113        2.55808        2.23719
H         -4.38736        0.82487        2.51527
H          0.99563        1.99268       -0.80060
