31

C          1.19834       -1.03372       -0.03382
C          0.57991       -0.32360       -1.24768
C          0.71759       -1.23092       -2.47167
C         -0.89104        0.07440       -0.99752
O         -1.01880        1.46324       -0.62416
C         -0.82890        1.67010        0.71380
C          0.45785        1.89210        1.19451
C          0.67109        2.05023        2.56113
C         -0.40852        2.06821        3.45232
C         -0.20207        2.21811        4.83078
C         -1.28201        2.28975        5.70897
C         -2.58265        2.21702        5.21679
C         -2.80479        2.04152        3.84868
C         -1.72924        1.94887        2.95025
C         -1.92346        1.74058        1.57261
H          1.16394       -2.12346       -0.13511
H          0.69491       -0.78737        0.90442
H          2.25079       -0.74666        0.06941
H          1.15819        0.58723       -1.44751
H          0.16994       -2.16969       -2.33639
H          0.33410       -0.73810       -3.37063
H          1.77097       -1.47513       -2.65007
H         -1.45752       -0.01581       -1.93214
H         -1.38930       -0.58364       -0.27345
H          1.30173        1.90963        0.51275
H          1.69033        2.16685        2.92263
H          0.80794        2.28427        5.23087
H         -1.10693        2.41121        6.77451
H         -3.42466        2.29399        5.89946
H         -3.82948        1.98321        3.48678
H         -2.92627        1.63301        1.16650
