15

O          1.09131        0.23848       -0.13922
C          2.29503        0.06121       -0.09802
O          3.08257        0.47906        0.91320
C          3.04447       -0.59306       -1.19173
C          2.67156       -0.31415       -2.51066
C          3.35298       -0.92719       -3.55970
Cl         2.91011       -0.57637       -5.18421
C          4.39189       -1.82088       -3.30617
C          4.74099       -2.10798       -1.98786
Cl         6.01103       -3.22283       -1.66616
C          4.07201       -1.50402       -0.92391
H          4.04279        0.43341        0.74867
H          1.85335        0.37521       -2.71257
H          4.91813       -2.29686       -4.12977
H          4.33145       -1.76805        0.09847
