42

C          1.67895       -0.75313        0.73617
C          0.46474       -1.69656        0.75828
C          0.49216       -2.49080        2.07133
O          0.28115       -1.64428        3.19350
C         -0.89984       -0.97154        0.60575
O         -1.24075       -0.65504       -0.75207
C         -0.58411        0.48872       -1.25881
C         -1.37759        1.80633       -1.19396
C         -1.11889        2.42127       -2.60475
C         -2.12440        1.72962       -3.53851
C         -1.58860        0.28981       -3.57571
C         -0.25366        0.37522       -2.76788
C          0.66563       -0.78641       -3.09960
C          0.24855        1.82177       -3.05492
C          0.64663        2.06567       -4.52113
C          1.44009        2.31646       -2.20216
H          1.48702        0.16666        1.29932
H          1.95850       -0.48358       -0.28521
H          2.56610       -1.22992        1.16679
H          0.58429       -2.40377       -0.07220
H         -0.29055       -3.25574        2.07287
H          1.45058       -3.00710        2.20081
H          1.07082       -1.08360        3.29703
H         -1.69199       -1.65004        0.94357
H         -0.96423       -0.07328        1.23125
H          0.33169        0.64323       -0.70081
H         -2.44135        1.65153       -0.98217
H         -0.97762        2.45473       -0.40708
H         -1.18613        3.51141       -2.62420
H         -3.15389        1.77761       -3.16967
H         -2.11642        2.18054       -4.53684
H         -2.30188       -0.41068       -3.12830
H         -1.42709       -0.02685       -4.61216
H          0.89590       -0.81957       -4.16920
H          1.61196       -0.72290       -2.55719
H          0.19395       -1.74083       -2.83821
H          0.77695        3.13675       -4.71058
H          1.60114        1.57162       -4.74087
H         -0.07087        1.69105       -5.25358
H          1.20637        2.47105       -1.14540
H          2.27721        1.61193       -2.25815
H          1.79868        3.28728       -2.56247
