35

C          0.63623        0.52847        2.72570
C          0.03472        1.92423        2.70416
C          0.72053        2.87874        1.72356
C          0.57200        2.54218        0.23865
O         -0.78678        2.57925       -0.19036
C         -1.37137        1.29195       -0.40741
C         -1.05679        0.63429       -1.77968
C         -0.07916        1.38326       -2.68328
O         -0.73693       -0.76331       -1.86401
C         -0.34824       -1.53106       -0.73962
C          1.10265       -2.04357       -0.80289
C          2.17584       -0.96784       -0.73285
O          1.32469       -2.94956        0.28408
H          0.55282        0.04190        1.75586
H          0.11080       -0.09961        3.45211
H          1.69508        0.55541        2.99932
H         -1.03749        1.86518        2.48942
H          0.12506        2.34431        3.71313
H          0.30155        3.87820        1.89311
H          1.78904        2.93471        1.96498
H          1.09686        3.31573       -0.33385
H          1.04757        1.59212       -0.00788
H         -1.19351        0.66657        0.46079
H         -2.45465        1.46882       -0.38409
H         -2.01259        0.69462       -2.31924
H          0.95762        1.13508       -2.45471
H         -0.23794        1.07826       -3.72502
H         -0.20341        2.46764       -2.63673
H         -0.55144       -1.07335        0.22415
H         -0.99499       -2.41836       -0.74324
H          1.24367       -2.60535       -1.73265
H          2.06333       -0.34916        0.16016
H          3.16866       -1.42488       -0.65330
H          2.17394       -0.32897       -1.61490
H          1.32081       -2.43526        1.11190
