8

C          1.00799       -0.03829       -0.07036
S          0.38703        1.61953       -0.10018
O          1.01590        2.32688       -1.19658
O         -1.05207        1.57485        0.05751
F          0.93673        2.30829        1.21928
H          0.65365       -0.55480       -0.96440
H          0.63271       -0.53382        0.82655
H          2.09857       -0.00075       -0.06240
