14

C          1.94766        0.01947        0.59566
C          0.72708        0.11895       -0.30093
O         -0.09168        1.20842        0.14459
C         -1.40568        0.66009        0.23378
C         -1.16221       -0.79202        0.54263
O         -0.01578       -1.10604       -0.24567
H          2.53932        0.93906        0.55297
H          1.64885       -0.12674        1.63983
H          2.57463       -0.83122        0.31201
H          1.02706        0.29781       -1.33862
H         -1.89453        0.78820       -0.73811
H         -1.98715        1.17433        1.00258
H         -2.00257       -1.43919        0.28175
H         -0.90219       -0.94240        1.59630
