21

C         -1.54392       -1.72450       -0.00483
C         -0.42755       -0.72051        0.00306
N          0.81466       -1.25208       -0.00410
C          1.85981       -0.40182        0.01807
C          1.76002        0.98884        0.03731
C          3.05912        1.74213        0.06311
O          3.76932        1.39642        1.24867
C          0.45889        1.52952        0.03386
C          0.22478        2.99800        0.07496
O          1.11031        3.84109        0.12761
C         -0.65240        0.65985        0.01676
O         -1.96198        1.06201        0.03772
H         -1.46874       -2.34943       -0.90070
H         -1.46446       -2.36693        0.87817
H         -2.53684       -1.26760        0.00202
H          2.83391       -0.89012        0.03113
H          3.66799        1.43484       -0.79520
H          2.99989        2.82529        0.01313
H          3.33470        1.87150        1.97860
H         -0.81652        3.34517        0.05915
H         -2.09124        1.98889       -0.20476
