31

C          1.26776       -0.09427       -0.27606
C          0.63443       -1.46842       -0.02886
C          1.30015       -2.11232        1.19220
C         -0.92495       -1.41547        0.04010
C         -1.53396       -2.73823        0.55251
C         -3.05803       -2.69550        0.66888
C         -3.55453       -1.50346        1.49786
C         -3.21600       -1.66531        2.98881
O         -3.76567       -0.59977        3.75338
C         -2.99872       -0.20763        0.89576
C         -1.47204       -0.20518        0.82157
H          1.17299        0.55512        0.60155
H          0.80513        0.40676       -1.13197
H          2.33775       -0.19553       -0.48819
H          0.89074       -2.09671       -0.89319
H          0.97031       -1.64511        2.12507
H          1.07764       -3.18340        1.24177
H          2.39068       -2.02384        1.13532
H         -1.27169       -1.28837       -0.99661
H         -1.24857       -3.55673       -0.11946
H         -1.13093       -2.98930        1.53924
H         -3.41744       -3.63462        1.10667
H         -3.48913       -2.63717       -0.33861
H         -4.64859       -1.45586        1.41615
H         -3.64798       -2.59557        3.37201
H         -2.13945       -1.70308        3.18032
H         -3.22595        0.19226        3.58395
H         -3.34375        0.66629        1.45879
H         -3.40146       -0.08922       -0.11941
H         -1.04637       -0.17830        1.83038
H         -1.17171        0.72638        0.32795
