9

C          1.07673       -0.03334        0.06010
C          0.35631       -0.46225       -0.98503
C         -1.13487       -0.49580       -1.02246
Br        -1.73329        0.65511       -2.46985
H          0.60819        0.33773        0.96657
H          2.16224       -0.03923        0.02487
H          0.87992       -0.82734       -1.86662
H         -1.50331       -1.50215       -1.23580
H         -1.59820       -0.12044       -0.10626
