34

C          0.96906       -0.11417        0.02158
N          0.50705        0.14927        1.37406
C          0.56758        1.47205        1.80784
O          0.99192        2.39022        1.11050
C          0.10229        1.73566        3.18143
N          0.10463        3.01805        3.62879
C         -0.32497        3.18928        4.90706
C         -0.34680        4.55807        5.45483
O          0.00889        5.50976        4.76378
N         -0.78555        4.69666        6.76979
C         -0.80162        6.04893        7.30170
C         -1.19723        3.65292        7.58680
O         -1.57353        3.83172        8.74616
N         -1.16563        2.38311        7.03286
C         -1.58879        1.27116        7.86760
C         -0.73945        2.14233        5.71395
N         -0.73450        0.86826        5.23659
C         -0.30927        0.66781        3.95856
N         -0.28581       -0.64365        3.44849
C         -0.71453       -1.71648        4.33438
C          0.13780       -0.93440        2.16337
O          0.19036       -2.09186        1.74602
H          0.62381        0.67258       -0.65668
H          0.61354       -1.07806       -0.35232
H          2.06383       -0.11512        0.02770
H          0.21202        6.46051        7.25372
H         -1.45434        6.66756        6.67687
H         -1.15381        6.09361        8.33497
H         -0.95578        1.24141        8.76103
H         -2.62250        1.44376        8.18581
H         -1.53376        0.30123        7.36841
H         -0.06007       -1.74574        5.21166
H         -1.74945       -1.53921        4.64517
H         -0.67093       -2.69276        3.84391
