34

C          0.39710       -2.07091       -1.26034
C          1.08161       -2.77030       -0.09898
O          1.12496       -1.86038        1.01000
C          2.38111       -1.80280        1.55700
C          2.79189       -2.82016        2.42007
C          4.06357       -2.77003        2.99237
C          4.91949       -1.70435        2.70896
C          4.50084       -0.67586        1.86235
C          3.21675       -0.70664        1.30497
C          2.82494        0.37764        0.36803
O          3.61175        0.59694       -0.55307
N          1.61031        1.02040        0.59289
O          0.99298        0.80517        1.85021
C          0.97872        2.00078       -0.22151
C         -0.17694        2.65736        0.23688
C         -0.84440        3.59701       -0.55645
C         -0.36888        3.89706       -1.82777
C          0.77309        3.25939       -2.30114
C          1.43926        2.31934       -1.50519
H         -0.58399       -1.68485       -0.96427
H          0.26821       -2.75287       -2.10502
H          0.98695       -1.21118       -1.59456
H          0.49632       -3.64454        0.20683
H          2.07638       -3.11405       -0.41217
H          2.12761       -3.64944        2.64581
H          4.39058       -3.56497        3.65826
H          5.91452       -1.67507        3.14656
H          5.17327        0.14855        1.63623
H          0.51785       -0.03070        1.67037
H         -0.57612        2.45270        1.22704
H         -1.73438        4.09252       -0.17735
H         -0.88415        4.62619       -2.44708
H          1.15199        3.48715       -3.29417
H          2.31688        1.84118       -1.92852
