40

O          1.13424        0.23301       -0.12041
C          2.35789        0.27458       -0.06462
O          3.14175        0.49428       -1.20109
C          4.52018        0.19772       -1.28924
C          5.36941        1.22507       -1.69496
C          6.74524        1.00274       -1.69707
C          7.24755       -0.24234       -1.30435
O          8.65691       -0.33670       -1.26251
C          9.31274       -1.23784       -0.43803
O          8.83061       -2.11253        0.26548
C         10.77091       -1.01522       -0.54176
C         11.61542       -2.13069       -0.48776
C         12.99876       -1.95759       -0.52297
C         13.53023       -0.67408       -0.59124
O         14.88781       -0.55390       -0.59596
C         12.70164        0.44467       -0.64028
C         11.31415        0.27472       -0.61839
C          6.38250       -1.29342       -0.99574
C          5.00495       -1.07392       -0.98987
C          3.05581        0.06520        1.22817
C          4.05076        0.94022        1.67976
C          4.70870        0.67727        2.88238
C          4.35084       -0.43558        3.63708
O          5.03147       -0.65780        4.79688
C          3.33013       -1.28618        3.22149
C          2.67490       -1.03060        2.01485
H          4.96700        2.19375       -1.97579
H          7.42301        1.80199       -1.98283
H         11.19870       -3.13289       -0.41138
H         13.65924       -2.81955       -0.48260
H         15.12174        0.38856       -0.57906
H         13.11513        1.44772       -0.68488
H         10.66901        1.14970       -0.63337
H          6.75166       -2.28159       -0.74033
H          4.33208       -1.88447       -0.72715
H          4.32948        1.81641        1.10149
H          5.50269        1.33363        3.22830
H          4.73250       -1.49916        5.17962
H          3.03380       -2.14414        3.81708
H          1.87399       -1.68884        1.68398
