29

O          2.30840        0.07490        0.03110
C          0.94621        0.01786        0.01527
C          0.24622        1.21678        0.00753
C         -1.15020        1.20477       -0.01164
C         -1.85493       -0.00897       -0.02302
C         -3.37453       -0.00233       -0.05003
C         -3.91939       -0.65451       -1.33346
C         -5.44643       -0.67649       -1.35256
C         -6.01284       -1.34584       -0.10442
C         -5.49493       -0.68235        1.16776
C         -3.96810       -0.66112        1.20804
C         -1.12427       -1.20874       -0.01263
C          0.27270       -1.19779        0.00620
H          2.65378       -0.83251        0.02738
H          0.78485        2.16001        0.01518
H         -1.68226        2.15323       -0.01884
H         -3.71162        1.04433       -0.05354
H         -3.55379       -0.11109       -2.21377
H         -3.55291       -1.68427       -1.42970
H         -5.79494       -1.20734       -2.24569
H         -5.82655        0.35006       -1.42221
H         -5.73654       -2.40758       -0.10156
H         -7.10737       -1.30033       -0.12549
H         -5.87826       -1.21684        2.04429
H         -5.87711        0.34412        1.22700
H         -3.60581       -1.69148        1.31299
H         -3.63673       -0.12232        2.10457
H         -1.63947       -2.16664       -0.02062
H          0.80978       -2.14048        0.01280
