45

C          2.65273       -0.25919        0.30443
C          1.16746       -0.06316        0.17205
C          0.33965       -1.21155        0.13606
C         -1.05588       -1.15631       -0.03675
N         -1.86756       -2.28803        0.04228
C         -1.30883       -3.65353       -0.12702
C         -1.41649       -4.47833        1.16416
O         -2.70553       -5.08539        1.27374
C         -3.34694       -2.20381       -0.04589
C         -4.00560       -1.89375        1.31072
O         -3.75356       -0.57172        1.77261
C         -1.57533        0.13362       -0.23493
C         -0.78174        1.28971       -0.16441
C          0.59073        1.20761        0.06067
N          1.31215        2.38608        0.32296
N          1.98960        2.74891       -0.66022
C          2.79779        3.86684       -0.34919
C          4.01334        4.00983       -1.03287
C          4.84883        5.11105       -0.80732
C          4.46386        6.09048        0.11626
N          5.31443        7.26908        0.32804
O          6.36892        7.34237       -0.31705
O          4.92251        8.12476        1.13561
C          3.26396        5.96218        0.82393
C          2.43892        4.85658        0.58450
H          2.87412       -0.97413        1.10255
H          3.05353       -0.64318       -0.64030
H          3.18575        0.66420        0.54481
H          0.84015       -2.16227        0.29243
H         -1.84870       -4.16255       -0.93541
H         -0.26559       -3.64053       -0.45141
H         -0.68912       -5.29582        1.13942
H         -1.22053       -3.87610        2.05829
H         -3.17736       -4.63391        1.99258
H         -3.65642       -1.48422       -0.81042
H         -3.74712       -3.16828       -0.38295
H         -5.09078       -2.00135        1.21853
H         -3.66688       -2.58064        2.08998
H         -2.78634       -0.51460        1.88796
H         -2.63613        0.29534       -0.40670
H         -1.25573        2.26399       -0.25733
H          4.31054        3.25162       -1.75483
H          5.78148        5.19089       -1.36210
H          2.95110        6.70839        1.55182
H          1.50217        4.77268        1.13217
