40

C          0.88653       -0.02942        0.36097
C          0.54828       -1.46467        0.66188
O         -0.22645       -1.74067        1.58162
N          1.03949       -2.48316       -0.10607
C          1.96038       -2.49125       -1.16565
C          1.89776       -3.55476       -2.06907
C          2.66990       -3.54517       -3.24018
C          3.48036       -2.45436       -3.53801
N          4.07480       -2.18283       -4.78286
C          3.85717       -2.61324       -6.07428
O          4.59473       -2.18966       -6.96179
C          2.78086       -3.55089       -6.45045
C          3.17079       -4.62967       -7.25581
C          2.29476       -5.69457       -7.49721
C          2.69272       -6.79996       -8.26269
C          1.86308       -7.91409       -8.38003
C          0.62869       -7.93203       -7.73659
C          0.19301       -6.81122       -7.02679
C          1.00657       -5.67276       -6.91822
C          0.57761       -4.51693       -6.24508
C          1.44781       -3.44372       -6.05092
O          0.91786       -2.35095       -5.42298
C          3.68738       -1.49867       -2.54085
C          2.93203       -1.51650       -1.36438
H          0.11799        0.61709        0.79706
H          0.88604        0.16168       -0.71521
H          1.84583        0.23425        0.81087
H          0.55022       -3.35079        0.08510
H          1.19771       -4.37412       -1.91796
H          2.57651       -4.39233       -3.91058
H          4.79305       -1.46512       -4.78039
H          4.18451       -4.65830       -7.65351
H          3.66033       -6.80720       -8.76031
H          2.18974       -8.77392       -8.95905
H          0.00056       -8.81723       -7.79273
H         -0.77925       -6.84118       -6.53988
H         -0.43274       -4.45420       -5.84682
H          1.60383       -1.66732       -5.32702
H          4.39333       -0.68430       -2.68628
H          3.13219       -0.74841       -0.62788
