31

C          0.79761       -0.11178        0.03301
O          0.60036        0.67840       -1.12445
P          1.17703        2.30882       -1.17002
O          2.14275        2.05401        0.00112
O          1.97985        1.94301       -2.58956
C          1.56188        1.01516       -3.51848
C          2.56974        0.28825       -4.15221
C          2.24236       -0.80009       -4.96412
C          0.90848       -1.15819       -5.15051
C         -0.10281       -0.39462       -4.56818
C          0.22298        0.71198       -3.77816
O          1.75370        3.93924       -1.21558
C          1.80908        4.63449       -2.39432
C          2.98573        5.34144       -2.64184
C          3.16031        5.99423       -3.86089
C          2.15205        5.94939       -4.82230
C          0.96115        5.27020       -4.55595
C          0.78148        4.61952       -3.33328
H          0.18915       -1.01516       -0.06154
H          0.48139        0.42510        0.93109
H          1.84564       -0.41633        0.10641
H          3.61119        0.53683       -3.97176
H          3.03226       -1.38895       -5.42378
H          0.65671       -2.03605       -5.74047
H         -1.14233       -0.68314       -4.70093
H         -0.58439        1.26613       -3.31034
H          3.78025        5.34987       -1.90027
H          4.08896        6.52066       -4.06605
H          2.29602        6.44022       -5.78163
H          0.17966        5.23754       -5.31059
H         -0.14792        4.09305       -3.14833
