56

C          1.92655        1.91727       -0.56097
C          0.69203        2.72456       -0.11148
C         -0.54145        2.21836       -0.93417
C         -0.44809        2.48459       -2.44220
C         -0.16857        3.93403       -2.73312
O         -0.47467        4.47008       -3.79819
C          0.52806        4.72786       -1.70819
C          0.90451        4.20370       -0.52770
C          1.47589        5.15963        0.47754
C          0.63191        5.05776        1.72836
C          0.89374        3.68993        2.34220
C          0.36043        2.53790        1.46267
C          0.72413        1.18568        2.17199
O          2.09524        0.82576        2.03747
C          0.37265        1.13400        3.70014
C          0.75449        2.39801        4.55727
C          2.25909        2.36812        4.88814
C          0.35723        3.65990        3.77127
C         -1.17784        3.75605        3.95473
C         -1.50313        2.96965        5.23860
C         -0.12908        2.64581        5.84026
O          0.22694        3.86429        6.52829
C         -0.16562        1.51142        6.87615
O         -0.96295        0.57162        6.80638
C          0.86768        1.55048        8.00413
O          1.65545        0.37323        8.01811
H          2.16752        2.07809       -1.61808
H          1.75401        0.83991       -0.45012
H          2.82244        2.19436        0.00153
H         -1.44554        2.72748       -0.56893
H         -0.69927        1.14633       -0.77037
H         -1.40465        2.22979       -2.91162
H          0.33394        1.88456       -2.91639
H          0.68559        5.77199       -1.96152
H          1.44912        6.19728        0.12434
H          2.52777        4.92412        0.67835
H         -0.43565        5.18785        1.50344
H          0.91367        5.85658        2.42302
H          1.98402        3.58339        2.40889
H         -0.73363        2.58768        1.51528
H          0.16433        0.38090        1.68024
H          2.64897        1.61955        2.08528
H         -0.70317        0.94388        3.76447
H          0.85523        0.25375        4.14786
H          2.88223        2.25004        4.00057
H          2.60200        3.28920        5.36751
H          2.49719        1.53311        5.55429
H          0.79443        4.53267        4.27790
H         -1.48040        4.80392        4.05295
H         -1.75190        3.33719        3.12454
H         -2.07389        2.06688        4.99325
H         -2.12790        3.57068        5.90848
H          1.19089        3.97132        6.54942
H          1.54747        2.39892        7.90815
H          0.34770        1.65177        8.96241
H          1.02718       -0.37055        8.08468
