19

O          1.25963        0.45682        0.79447
C          2.28347        0.17719        0.17313
C          3.19109       -0.93086        0.68631
Cl         4.20872       -1.62905       -0.59620
N          2.75566        0.83668       -0.94681
C          2.19091        1.94556       -1.60651
C          2.81272        2.36986       -2.78844
C          2.31518        3.46194       -3.50445
C          1.19366        4.14419       -3.04180
C          0.57305        3.73413       -1.86443
C          1.06931        2.63905       -1.14931
H          3.84426       -0.52579        1.46369
H          2.57865       -1.73764        1.09750
H          3.57924        0.42865       -1.37878
H          3.68896        1.85430       -3.17293
H          2.80274        3.77789       -4.42300
H          0.80306        4.99367       -3.59584
H         -0.30142        4.26493       -1.49628
H          0.55668        2.35830       -0.23491
