51

C          0.62678        0.19389       -3.51387
C          1.13929       -1.04347       -3.49952
C          1.80419       -1.50896       -2.25885
O          2.23796       -0.82015       -1.35472
O          1.79149       -2.85907       -2.28239
C          1.70060       -3.27497       -3.63684
C          1.09481       -4.64444       -3.66234
C          1.80587       -5.78624       -3.81789
C          3.29720       -5.89510       -3.65553
O          3.57487       -6.88651       -2.68116
C          1.11270       -6.99540       -4.42933
C          1.14695       -6.92552       -5.98194
C          0.80906       -5.53265       -6.47312
C          1.67061       -4.55323       -6.82735
C          3.13568       -4.75134       -7.10806
C          1.16393       -3.13184       -6.96365
C          1.59818       -2.06392       -5.89475
O          1.47453       -0.73801       -6.49656
C          0.32446       -0.38665       -7.13156
O         -0.75477       -0.93469       -6.95871
C          0.55682        0.74354       -8.11723
C          0.84628        2.02959       -7.35467
C          1.68572        0.41615       -9.09951
O          1.24581       -0.49524      -10.10158
C          0.96513       -2.18760       -4.46156
H          0.00355        0.55512       -4.32128
H          0.77562        0.86382       -2.66645
H          2.73222       -3.32879       -3.99975
H          0.01133       -4.67744       -3.77409
H          3.77620       -6.18626       -4.59328
H          3.75874       -4.96186       -3.32256
H          4.22853       -6.50312       -2.07174
H          1.58020       -7.92716       -4.09068
H          0.06875       -7.04169       -4.09263
H          2.12421       -7.25761       -6.34320
H          0.41681       -7.63314       -6.39239
H         -0.24488       -5.27944       -6.34573
H          3.34027       -4.52376       -8.16012
H          3.74989       -4.09247       -6.48822
H          3.47769       -5.77330       -6.93445
H          0.06971       -3.15021       -7.01990
H          1.48778       -2.77614       -7.95122
H          2.68451       -2.15341       -5.77849
H         -0.37606        0.86450       -8.68302
H          1.80810        1.97770       -6.83320
H          0.87788        2.88389       -8.03922
H          0.07049        2.22243       -6.60667
H          1.99721        1.32326       -9.62876
H          2.57650        0.00115       -8.61605
H          1.35049       -1.40203       -9.76760
H         -0.10928       -2.39563       -4.54758
