34

C          0.73509       -0.06448        0.02783
C          0.03418        0.68059       -0.84219
C         -1.45229        0.82750       -0.80717
C          0.78689        1.36378       -1.92417
O          1.81020        0.92473       -2.42608
O          0.18849        2.54557       -2.20698
C          0.80099        3.35086       -3.22766
C          1.73017        4.39768       -2.60927
C          3.04120        3.84650       -2.03402
C          3.97147        3.18419       -3.05248
O          4.60524        4.16874       -3.88531
C          4.01653        4.42475       -5.07893
O          2.97046        3.94689       -5.49029
C          4.76990        5.47227       -5.81768
C          6.10551        5.57168       -5.71516
C          3.93971        6.35882       -6.69137
H          0.24868       -0.60050        0.83551
H          1.81637       -0.15476       -0.04510
H         -1.73765        1.85191       -0.54824
H         -1.88261        0.58095       -1.78379
H         -1.90712        0.15766       -0.06988
H          1.28698        2.73195       -3.98703
H         -0.01962        3.87067       -3.73496
H          1.95366        5.17066       -3.35200
H          1.19518        4.89694       -1.79131
H          3.57535        4.68385       -1.56723
H          2.81562        3.13532       -1.23238
H          4.78083        2.68363       -2.50904
H          3.48213        2.41150       -3.65179
H          6.65784        6.32624       -6.26540
H          6.68476        4.89834       -5.08957
H          3.36815        5.77043       -7.41642
H          3.23621        6.93590       -6.08140
H          4.55475        7.06960       -7.25275
