42

C          1.27833        0.13671        0.03625
C          0.31204       -0.14870        0.91277
O         -1.07749       -0.03064        0.75882
C         -1.71499        0.31181       -0.40319
O         -1.20356        0.72129       -1.43735
C         -3.20461        0.10873       -0.24309
C         -3.58996       -1.36697       -0.11835
C         -3.26551       -2.02773        1.22914
C         -3.87966       -1.33675        2.45097
C         -5.41061       -1.38401        2.49195
C         -5.99518       -2.79738        2.60476
C         -5.55265       -3.57014        3.85293
C         -5.98872       -2.93547        5.17793
C         -7.50611       -2.87185        5.38538
C         -8.21818       -4.22714        5.35683
C         -7.73894       -5.17747        6.44360
H          1.08036        0.53674       -0.95108
H          2.31786       -0.02893        0.29898
H          0.51284       -0.54868        1.90084
H         -3.57088        0.72312        0.58421
H         -3.67842        0.51390       -1.14631
H         -4.66487       -1.46425       -0.31102
H         -3.08653       -1.93860       -0.90824
H         -3.58986       -3.07387        1.19005
H         -2.18094       -2.08175        1.36562
H         -3.46891       -1.79521        3.35737
H         -3.55572       -0.29161        2.49589
H         -5.75861       -0.77423        3.33345
H         -5.81983       -0.90375        1.59581
H         -7.08850       -2.72890        2.57898
H         -5.72151       -3.38000        1.71779
H         -5.93611       -4.59430        3.78731
H         -4.46206       -3.67650        3.85731
H         -5.53062       -3.49442        6.00193
H         -5.58117       -1.92103        5.25717
H         -7.70413       -2.38696        6.34929
H         -7.95517       -2.22186        4.62531
H         -9.29341       -4.05822        5.48825
H         -8.10118       -4.70218        4.37675
H         -7.86227       -4.72957        7.43468
H         -8.31762       -6.10577        6.41509
H         -6.68554       -5.44241        6.31308
