35

O          1.30844       -0.04145        0.03793
N          2.48515       -0.22084       -0.29445
O          3.16848       -1.21018        0.00776
C          3.12817        0.82259       -1.10061
C          4.30374        0.53692       -1.80795
C          4.92831        1.54406       -2.56014
C          4.39701        2.84227       -2.62112
N          5.07694        3.82669       -3.37592
N          4.53870        3.93321       -4.49817
C          5.09267        4.96733       -5.30174
C          5.17409        6.30167       -4.85622
O          4.90523        6.69009       -3.57306
C          5.51986        7.33954       -5.71424
C          5.78685        7.07261       -7.05053
C          5.75818        5.75944       -7.53235
C          6.04505        5.50971       -8.88348
C          6.05626        4.21009       -9.38366
C          5.77827        3.14404       -8.53749
C          5.45983        3.37945       -7.19600
C          5.43207        4.68681       -6.65803
C          3.21833        3.09191       -1.89408
N          2.64372        4.42288       -1.88307
O          3.41792        5.37129       -1.69715
O          1.41809        4.51113       -2.01805
C          2.56875        2.10124       -1.13982
H          4.74502       -0.45920       -1.78345
H          5.84183        1.31380       -3.10710
H          4.63366        5.91067       -3.05143
H          5.55411        8.35995       -5.34165
H          6.02419        7.90381       -7.71120
H          6.26553        6.33252       -9.56133
H          6.28736        4.03386      -10.43117
H          5.80591        2.12725       -8.92096
H          5.24813        2.52169       -6.56105
H          1.65972        2.33550       -0.58677
