29

C          1.04994       -0.42767       -0.72549
N          0.52252        0.92684       -0.88020
C         -0.92329        0.94423       -1.07582
C          1.01180        1.93712        0.09034
C          0.43728        1.89951        1.53910
S          1.06736        0.70483        2.75215
C          0.20212       -0.75234        2.37210
N         -1.13914       -0.60015        2.26243
O          0.75110       -1.83666        2.25820
C          2.55620        2.12013        0.06945
S          3.10718        3.08506       -1.38258
C          3.36819        1.80189       -2.52288
N          2.24063        1.48974       -3.20632
O          4.44314        1.25543       -2.69254
H          0.26248       -1.18995       -0.71572
H          1.65524       -0.56336        0.17066
H          1.70541       -0.66045       -1.57007
H         -1.47538        0.61588       -0.19140
H         -1.26421        1.95091       -1.34193
H         -1.20538        0.29304       -1.91069
H          0.60935        2.88891       -0.29114
H          0.67215        2.87473        1.98713
H         -0.65599        1.87817        1.51781
H         -1.68226       -1.44631        2.15691
H         -1.59780        0.23851        2.57927
H          2.86444        2.70902        0.94038
H          3.10041        1.17253        0.12504
H          2.28835        0.63812       -3.74629
H          1.37024        1.66231       -2.71301
