22

N          1.09825       -0.11863       -0.03720
C          0.49109        0.29077        1.22454
C          0.89540        1.69169        1.60598
C          1.83194        1.91141        2.62417
C          2.20898        3.21095        2.97238
C          1.66544        4.31791        2.30639
C          2.08232        5.71671        2.68254
N          1.70298        6.03789        4.05334
C          0.73429        4.09753        1.28321
C          0.35304        2.79800        0.93752
H          0.80833        0.53041       -0.76657
H          2.10849       -0.00469        0.04061
H         -0.60065        0.23103        1.14841
H          0.78422       -0.41816        2.00724
H          2.27032        1.07290        3.16049
H          2.92627        3.36369        3.77710
H          3.16790        5.81150        2.56669
H          1.62465        6.44639        2.00473
H          1.89056        7.02240        4.22949
H          0.69639        5.91268        4.15154
H          0.29668        4.93619        0.74709
H         -0.37457        2.65234        0.14189
