42

C          2.47090       -0.74566       -0.01907
C          2.44254        0.64091       -0.00880
C          1.21659        1.31250       -0.02254
C         -0.02240        0.62438       -0.05200
C         -1.29730        1.28224       -0.07619
N         -1.35047        2.67812       -0.05253
C         -2.55637        3.49426       -0.08273
C         -2.58779        4.39969        1.14935
C         -1.48754        5.47062        1.16553
N         -1.52375        6.39352        0.01681
C         -0.31313        7.24903       -0.01845
C         -0.29613        8.35429        1.05248
O         -1.46635        9.17796        0.97543
C         -2.65555        8.38745        1.09231
C         -2.70327        7.28889        0.01691
C         -2.45026        0.48670       -0.00149
C         -2.38096       -0.90604        0.00876
C         -1.14721       -1.54146       -0.02236
C          0.03501       -0.79542       -0.04107
C          1.27432       -1.45812       -0.03249
H          3.42008       -1.27386       -0.00619
H          3.37014        1.20623        0.01593
H          1.24289        2.39825        0.00965
H         -0.59465        3.10581       -0.58039
H         -2.56615        4.08631       -1.00473
H         -3.47814        2.90976       -0.09512
H         -3.57395        4.87054        1.22490
H         -2.47952        3.78329        2.05158
H         -1.54521        6.01082        2.11729
H         -0.51983        4.95246        1.17322
H         -0.27939        7.72516       -1.00724
H          0.59392        6.63742        0.05344
H         -0.21428        7.93837        2.06296
H          0.57120        9.00347        0.89507
H         -3.50989        9.06027        0.96635
H         -2.71548        7.97076        2.10393
H         -2.73851        7.77482       -0.96732
H         -3.63579        6.72194        0.09576
H         -3.44093        0.92358        0.03683
H         -3.29471       -1.49294        0.04637
H         -1.11682       -2.62856       -0.01111
H          1.31573       -2.54540       -0.02658
