35

C          0.14322        0.81561       -0.25964
C          0.59354        0.73986       -1.70843
O          1.14908       -0.55794       -1.96577
C          2.48892       -0.50240       -2.22489
C          2.90805       -0.25499       -3.53517
C          4.27417       -0.22534       -3.83944
O          4.59770       -0.05244       -5.17200
C          5.78086       -0.61038       -5.60600
C          6.75175        0.27738       -6.07754
C          8.00084       -0.20127       -6.48014
C          8.29227       -1.57345       -6.42092
C          9.65457       -2.08421       -6.82585
F          9.78461       -2.20163       -8.17424
F         10.66331       -1.26487       -6.41857
F          9.94180       -3.31083       -6.30927
C          7.28704       -2.46358       -6.00844
C          6.03131       -1.98909       -5.61706
Cl         4.83675       -3.15166       -5.16784
C          5.22593       -0.37225       -2.82071
C          4.81506       -0.65804       -1.51869
C          3.44623       -0.75753       -1.24060
N          3.05032       -1.14632        0.09927
O          3.55988       -0.51530        1.03600
O          2.27111       -2.10032        0.21979
H         -0.47762       -0.04737        0.00221
H         -0.42282        1.73251       -0.07392
H          1.00446        0.80664        0.41490
H         -0.27600        0.85485       -2.36440
H          1.28871        1.55923       -1.93362
H          2.17362       -0.12128       -4.32513
H          6.54174        1.34401       -6.11293
H          8.75511        0.50353       -6.83015
H          7.48785       -3.53448       -5.98760
H          6.29001       -0.30344       -3.02885
H          5.55731       -0.82335       -0.74149
