33

C          1.03166       -0.29160        0.04591
N          1.06084        1.07486       -0.54129
C          1.77059        1.09759       -1.86477
C          3.24028        1.52157       -1.68436
O          4.13557        0.66889       -1.69956
N          3.60061        2.83874       -1.65963
C          3.03429        3.95446       -1.04892
C          2.36121        3.89425        0.16110
C          1.88623        5.07974        0.72687
C          2.09644        6.28434        0.06957
C          2.80595        6.25373       -1.11606
N          3.30142        5.12112       -1.66642
C          1.17365        1.81974       -3.07210
O          1.45683        1.47060       -4.21797
C          0.34296        2.96138       -2.76330
S          0.19557        4.29569       -3.80589
C         -0.71833        5.16569       -2.63990
C         -0.97271        4.41680       -1.50840
C         -0.37493        3.13466       -1.60803
S         -0.44821        1.85064       -0.47181
O         -1.43502        0.96246       -1.03929
O         -0.59121        2.46891        0.82348
H          0.52819       -0.99288       -0.63025
H          0.51025       -0.29346        1.00740
H          2.05141       -0.64767        0.21924
H          1.81772        0.05264       -2.21305
H          4.51574        3.04159       -2.04412
H          2.24954        2.96783        0.71190
H          1.36482        5.05975        1.68122
H          1.73460        7.22168        0.47847
H          3.00553        7.16584       -1.67245
H         -1.02736        6.17990       -2.85265
H         -1.53966        4.77739       -0.65848
