47

C         -0.02841        0.11144        0.23968
C          0.02855       -1.31481       -0.24562
C         -0.63092       -2.21657        0.51732
C         -0.97989       -3.65630        0.23348
C         -0.40215       -4.58160        1.30265
C         -2.50728       -3.76652        0.19516
C          0.67800       -1.60949       -1.59896
C         -0.02635       -0.95434       -2.78069
O          2.10161       -1.58753       -1.58581
C          2.98683       -0.49138       -1.83755
C          2.83092        0.14374       -3.22567
C          2.90976        0.59480       -0.76910
C          4.41400       -1.12413       -1.80199
O          4.61473       -1.93731       -0.63065
C          5.21878       -1.35945        0.43188
O          5.63249       -0.21090        0.49737
C          5.33492       -2.28770        1.58218
C          5.21439       -3.78800        1.44557
C          6.55907       -3.16720        1.68941
H         -0.93223        0.29682        0.83300
H         -0.07773        0.82004       -0.58998
H          0.82172        0.34402        0.88290
H         -1.04144       -1.86175        1.46569
H         -0.60064       -3.98616       -0.73655
H         -0.75110       -4.31098        2.30567
H         -0.69979       -5.61923        1.11474
H          0.69255       -4.54291        1.30358
H         -2.92606       -3.10310       -0.57096
H         -2.82193       -4.78827       -0.03789
H         -2.95483       -3.48690        1.15670
H          0.50385       -2.67326       -1.78629
H         -0.01546        0.13561       -2.72436
H          0.44207       -1.25153       -3.72466
H         -1.07682       -1.26591       -2.81891
H          1.92054        0.74134       -3.30502
H          3.66200        0.82549       -3.44284
H          2.79691       -0.61856       -4.01072
H          2.86632        0.16217        0.23411
H          3.77238        1.26836       -0.81519
H          2.03014        1.22501       -0.91176
H          4.53094       -1.80880       -2.65081
H          5.20168       -0.36575       -1.90071
H          4.95710       -1.86165        2.50633
H          4.74849       -4.33275        2.25879
H          5.01560       -4.21080        0.46690
H          7.26834       -3.15871        0.86880
H          7.01060       -3.28385        2.66700
