62

C          0.84404       -0.02180       -0.36074
C          0.13245        0.21861        0.92990
O         -0.52210        1.21973        1.18300
O          0.35008       -0.81632        1.78728
C         -0.31423       -0.67515        3.03298
C          0.34555        0.29687        3.98910
O         -0.32894        1.17588        4.54682
C          1.79571        0.09003        4.44967
O          1.64131       -0.00522        5.89375
C          2.63299       -1.12945        4.01902
C          2.13338       -2.52069        4.38079
C          3.96329       -0.81298        4.72930
C          4.16239        0.70151        4.51626
C          4.86469        1.47512        5.66624
C          6.22236        0.81244        5.94120
C          7.15230        1.68899        6.75057
C          7.34384        3.05064        6.08942
C          8.46343        3.72826        6.41716
C          8.26956        4.34116        7.78788
O          9.23081        4.69021        8.46026
C          6.85040        4.55070        8.26191
C          5.79348        4.31300        7.44716
C          6.02963        3.86057        5.99612
C          6.17440        5.20205        5.21284
C          4.98388        2.95985        5.22081
F          5.48786        2.89405        3.91859
C          3.57560        3.59404        5.06167
O          3.55560        4.50454        3.95421
C          2.42597        2.59125        4.87398
C          2.76988        1.28573        4.11599
C          2.81249        1.59619        2.59531
H          0.66366        0.82265       -1.03152
H          0.46087       -0.93153       -0.82792
H          1.91846       -0.10134       -0.17913
H         -1.35804       -0.37034        2.87876
H         -0.37295       -1.65177        3.52086
H          0.94900        0.64192        6.14432
H          2.80280       -1.13100        2.93629
H          1.40953       -2.87183        3.63900
H          2.95820       -3.24228        4.36411
H          1.66189       -2.55807        5.36501
H          4.79183       -1.38947        4.30244
H          3.90951       -1.06130        5.79637
H          4.82861        0.76732        3.64293
H          4.26587        1.42255        6.58611
H          6.71711        0.54045        5.00178
H          6.06033       -0.12321        6.49240
H          8.11681        1.18071        6.86790
H          6.73722        1.79754        7.76127
H          8.81193        4.55190        5.79148
H          6.75444        4.92843        9.27255
H          4.78876        4.52753        7.79623
H          5.24777        5.78765        5.26238
H          6.94954        5.86142        5.62036
H          6.41704        5.03483        4.15885
H          3.32676        4.18962        5.94630
H          4.18841        4.15850        3.29430
H          1.58647        3.08946        4.36993
H          2.06914        2.35119        5.87988
H          3.60926        2.30771        2.35537
H          3.01821        0.71032        1.98746
H          1.87411        2.03351        2.24694
