17

C          0.92076        0.03113        0.09683
C          0.40753       -0.65304        1.32240
C         -0.35979       -0.05335        2.24437
C         -0.84781       -0.73637        3.41929
C         -1.61551       -0.13741        4.34228
C         -2.14187       -0.81831        5.56150
O         -1.65804       -0.13030        6.70338
H          0.59536        1.07449        0.03689
H          0.56343       -0.48943       -0.79694
H          2.01486        0.01369        0.09108
H          0.69170       -1.69653        1.43819
H         -0.63857        0.99122        2.11797
H         -0.57114       -1.78195        3.54094
H         -1.90212        0.90550        4.22662
H         -3.23508       -0.78160        5.57243
H         -1.83176       -1.86593        5.62701
H         -0.68995       -0.09163        6.61791
