15

C          3.52785       -0.01099       -0.00770
C          2.02736        0.00193       -0.00054
C          1.31920       -1.20752        0.00282
C         -0.07742       -1.20954        0.00843
C         -0.77057       -0.00133        0.01088
Cl        -2.49135       -0.00265        0.01678
C         -0.07920        1.20809        0.00833
C          1.31778        1.20963        0.00274
H          3.90462       -0.52151        0.88439
H          3.89587       -0.52628       -0.90072
H          3.93844        1.00404       -0.01264
H          1.85353       -2.15528        0.00078
H         -0.61544       -2.15341        0.01062
H         -0.61918        2.15092        0.01045
H          1.84675        2.16018        0.00067
