27

C          1.27034       -0.14988       -0.31516
C          0.87158       -0.35611        1.13735
C          1.23260        0.82401        2.04418
C          0.46607        2.12220        1.76536
C         -1.04052        2.04547        2.01082
O         -1.31665        1.92319        3.41647
C         -1.65114        0.68681        3.88061
O         -1.75125       -0.31904        3.18978
C         -1.98067        0.72669        5.37979
C         -1.20623        1.79191        6.14502
O         -3.37330        0.91293        5.61231
H          0.74824        0.70149       -0.76052
H          1.01569       -1.03871       -0.90168
H          2.34826        0.01637       -0.40496
H         -0.19894       -0.57300        1.18427
H          1.38407       -1.24973        1.51344
H          1.07830        0.52866        3.08847
H          2.30616        1.02842        1.94449
H          0.88428        2.89770        2.41988
H          0.64801        2.44720        0.73548
H         -1.49426        2.99178        1.69512
H         -1.52277        1.26114        1.41889
H         -1.70099       -0.25144        5.78800
H         -1.52349        2.79974        5.85407
H         -1.40121        1.70423        7.21932
H         -0.12872        1.70487        5.97442
H         -3.63339        1.73929        5.16896
