50

C          0.32362        0.75942        1.83513
C         -0.05366        2.03324        1.08155
C          0.93569        2.61653       -0.02037
C          0.11402        3.04266       -1.27736
C          0.03002        1.89317       -2.29583
C          0.15279        0.53970       -1.56111
C         -0.51787       -0.53606       -2.33379
C         -1.91341       -0.41182       -2.42880
C         -2.64299       -1.30987       -3.17414
C         -1.98104       -2.32997       -3.83538
O         -2.63357       -3.20640       -4.67127
C         -3.92605       -2.75941       -5.09870
C         -0.58612       -2.50640       -3.66431
C          0.17098       -1.59108       -2.90122
C          1.64936       -1.75634       -2.60351
C          2.38497       -0.46023       -2.12738
C          1.59259        0.30009       -1.03992
C          2.09612        1.71100       -0.61394
C          3.29815        2.03516        0.26109
C          3.16137        3.57049        0.35455
C          1.68700        3.78475        0.67643
O          1.22155        5.06177        0.28108
H          0.08953       -0.14307        1.26240
H         -0.27862        0.67684        2.74639
H          1.37391        0.73412        2.12568
H         -1.05930        1.88713        0.66462
H         -0.24034        2.80300        1.84137
H         -0.89950        3.35036       -0.99626
H          0.56980        3.89895       -1.78803
H         -0.89020        1.99796       -2.87985
H          0.83619        1.98280       -3.03999
H         -0.48337        0.56804       -0.68408
H         -2.42933        0.40231       -1.93011
H         -3.71376       -1.15399       -3.21517
H         -4.64992       -2.80368       -4.27543
H         -3.88314       -1.74504       -5.51791
H         -4.28359       -3.42605       -5.88632
H         -0.10288       -3.35220       -4.14078
H          2.16423       -2.14692       -3.48902
H          1.74292       -2.51475       -1.81435
H          2.55604        0.18734       -2.99513
H          3.37533       -0.73710       -1.74211
H          1.58508       -0.36375       -0.17057
H          2.41174        2.16714       -1.56896
H          3.23618        1.58318        1.25388
H          4.25103        1.76063       -0.19903
H          3.80529        4.01588        1.11852
H          3.41006        4.05705       -0.59826
H          1.59079        3.73354        1.76753
H          0.25688        5.07382        0.41946
