27

O          1.07635        0.03147       -0.02094
C          2.29424       -0.03560       -0.00869
O          3.02405       -0.20244        1.11546
C          3.12382        0.12291       -1.22508
C          4.22120       -0.73461       -1.42141
C          5.04036       -0.57449       -2.53653
C          4.76933        0.43870       -3.44965
C          3.67039        1.28138       -3.25884
C          2.79657        1.11657       -2.17075
N          1.74419        2.03919       -1.93234
C          1.19530        2.96631       -2.84250
C          0.96238        4.27463       -2.40601
C          0.43499        5.23186       -3.27436
C          0.09492        4.87598       -4.57763
C          0.25380        3.55759       -5.00092
C          0.78388        2.60256       -4.12967
H          3.97824       -0.02871        1.00275
H          4.43604       -1.53530       -0.71742
H          5.89292       -1.23120       -2.69200
H          5.41359        0.58453       -4.31375
H          3.50896        2.08233       -3.97698
H          1.00650        1.62505       -1.34867
H          1.23074        4.56000       -1.39182
H          0.29784        6.25437       -2.93350
H         -0.30284        5.62330       -5.25904
H         -0.03257        3.27210       -6.00962
H          0.88826        1.57490       -4.46783
