53

C         -0.83189        1.30570       -1.31908
O         -0.62756        2.64855       -0.94510
C          0.55264        3.08418       -0.24360
O          0.35600        4.51120       -0.28885
C          1.24124        5.37785        0.38272
C          0.59690        2.57334        1.20466
C          0.92660        1.08370        1.34108
C          1.71750        0.46390        0.20363
C          2.22056        1.21605       -0.80328
C          2.97901        0.62439       -1.96445
C          2.61284       -0.83661       -2.20583
C          2.72370       -1.62337       -0.89272
C          1.72553       -1.06586        0.14056
C          1.97803       -1.76679        1.47941
C          1.72404       -3.26781        1.36548
C          2.42880       -3.97495        0.20020
C          1.73925       -5.33463       -0.02992
C          3.89895       -4.27086        0.49090
O          4.31555       -4.76072        1.53578
C          4.79560       -3.91139       -0.66559
C          3.78684       -3.74279       -1.79591
C          2.53938       -3.14838       -1.11258
C          1.88239        2.69053       -0.93951
H         -1.76100        1.25828       -1.89470
H         -0.97858        0.66036       -0.45283
H         -0.04712        0.93165       -1.97759
H          1.24544        5.20182        1.45965
H          2.24959        5.32484       -0.03073
H          0.87349        6.39746        0.22629
H          1.36981        3.11675        1.76259
H         -0.34727        2.79152        1.71735
H         -0.01099        0.53286        1.47470
H          1.49133        0.94725        2.27299
H          2.78386        1.18150       -2.88750
H          4.05420        0.71363       -1.76217
H          1.59088       -0.90423       -2.60190
H          3.27447       -1.23607       -2.97991
H          3.73185       -1.44153       -0.49744
H          0.71081       -1.34155       -0.18765
H          1.30423       -1.38282        2.25395
H          3.00020       -1.57808        1.82691
H          1.99594       -3.73929        2.31828
H          0.63881       -3.40660        1.26086
H          1.74733       -5.93325        0.88959
H          0.69367       -5.20082       -0.32965
H          2.23470       -5.93436       -0.80003
H          5.52122       -4.69734       -0.87930
H          5.31062       -2.97421       -0.43441
H          3.54835       -4.71996       -2.23253
H          4.19182       -3.12789       -2.60312
H          1.65259       -3.30970       -1.73977
H          1.80417        2.96716       -1.99774
H          2.72807        3.25840       -0.53327
