33

C          1.03807       -0.27544       -0.25250
C          0.45474        1.00005       -0.88957
C         -0.03697        0.58025       -2.29768
C         -0.75726        1.53613       -0.09249
C         -0.39959        2.28382        1.19364
O          0.04984        1.37104        2.18626
C          0.62342        3.39447        0.94915
C          1.89525        2.96356        0.17480
C          2.86271        2.18458        1.09405
C          2.69521        4.23912       -0.25783
N          1.95901        5.18521       -1.09373
C          1.51429        2.11995       -1.07326
H          0.34754       -1.11977       -0.36766
H          1.22409       -0.18849        0.81607
H          1.98243       -0.55792       -0.73057
H          0.78814        0.18004       -2.89836
H         -0.81057       -0.19378       -2.23360
H         -0.46578        1.42757       -2.84424
H         -1.32031        2.23028       -0.73183
H         -1.43507        0.70538        0.14253
H         -1.31435        2.73748        1.59347
H          0.43418        1.88538        2.91408
H          0.91813        3.84062        1.90787
H          0.10398        4.18144        0.38804
H          3.76172        1.87934        0.54601
H          3.18813        2.80728        1.93593
H          2.42916        1.28693        1.52788
H          3.01925        4.78136        0.63933
H          3.60572        3.94233       -0.79295
H          2.54046        6.00653       -1.25946
H          1.79187        4.77892       -2.01293
H          2.42314        1.69945       -1.52454
H          1.10919        2.80441       -1.82938
