20

C          1.09850        0.10083       -0.00054
C          0.64732       -0.81424       -1.12839
C          0.95500       -2.29651       -0.88898
C          0.36836       -2.90396        0.38415
C         -1.13403       -3.02862        0.33704
O         -1.72893       -4.08014        0.14127
O         -1.72195       -1.81889        0.53691
C         -3.14384       -1.82077        0.40918
H          0.57095       -0.11409        0.93305
H          0.89218        1.14435       -0.25953
H          2.17361        0.00175        0.17791
H         -0.42337       -0.67180       -1.30909
H          1.15270       -0.50295       -2.05078
H          0.59656       -2.86398       -1.75718
H          2.04427       -2.42412       -0.86128
H          0.76791       -3.91900        0.50573
H          0.66307       -2.36045        1.28712
H         -3.46376       -2.35755       -0.48993
H         -3.59594       -2.25663        1.30411
H         -3.47393       -0.78202        0.31840
