11

O          1.00897        0.05088       -0.21859
C          2.21365       -0.02409       -0.03496
O          3.09566        0.62088       -0.83020
C          2.85652       -0.81592        1.07845
C          2.57946       -0.19453        2.44088
I          0.68794       -0.78649        3.24841
H          4.03631        0.48495       -0.61412
H          2.52303       -1.85664        1.00397
H          3.94100       -0.83514        0.91785
H          3.35288       -0.52787        3.14268
H          2.63823        0.89854        2.39269
