42

C         -0.24189        0.06394        0.10742
O         -0.03168        1.37982        0.59577
C          0.70590        1.59240        1.72578
C          1.62679        0.86089        2.39459
C          2.17155        1.41307        3.69122
O          3.08005        0.89011        4.31755
O          1.49691        2.52425        4.09338
C          1.91453        3.05104        5.35395
C          2.16102       -0.44208        1.93263
C          1.92785       -1.57173        2.73902
C          2.42471       -2.82744        2.38554
C          3.13404       -2.98476        1.20152
C          3.38255       -1.87864        0.39271
C          2.94607       -0.59056        0.76726
C          3.40869        0.58804       -0.07183
O          4.81621        0.50294       -0.34530
C          5.55780        1.10925        0.63496
C          5.70089        0.53131        1.88635
C          6.49763        1.16815        2.82581
C          7.16745        2.33080        2.46725
C          7.01905        2.82965        1.16998
C          7.79924        4.06810        0.75267
F          8.53499        3.88713       -0.38142
F          7.00223        5.15007        0.52012
F          8.69739        4.47995        1.69961
N          6.20041        2.23020        0.25558
H         -1.09592        0.10145       -0.57620
H         -0.49364       -0.63332        0.91158
H          0.61260       -0.28058       -0.47601
H          0.41907        2.58690        2.06318
H          1.60402        2.37891        6.15966
H          2.99660        3.21310        5.37768
H          1.41934        4.01575        5.49734
H          1.37936       -1.47611        3.67490
H          2.26417       -3.67962        3.04113
H          3.52128       -3.96107        0.92087
H          3.97193       -2.01017       -0.51442
H          2.89042        0.54009       -1.03747
H          3.16257        1.56309        0.36326
H          5.21442       -0.40112        2.14439
H          6.60181        0.74758        3.82239
H          7.81115        2.82590        3.18902
