32

N          0.94516        0.09662        0.05556
C          0.17463        0.78507        0.98317
N          0.55720        2.03493        1.32967
C         -0.21686        2.72709        2.19281
N         -1.36999        2.34050        2.78089
C         -1.67397        1.07451        2.44498
C         -0.97905        0.24660        1.57698
N         -1.60429       -0.97815        1.46363
C         -2.67060       -0.88330        2.23096
N         -2.76850        0.34800        2.82679
C         -3.86670        0.78770        3.65421
O         -3.38686        1.15556        4.96013
C         -4.44892        1.92917        5.55073
C         -3.93751        2.75473        6.72724
O         -4.95412        3.62184        7.21871
C         -5.07202        2.74380        4.41314
O         -4.55762        4.08109        4.36958
C         -4.71153        1.97095        3.14124
O         -4.08307        2.87056        2.21951
H          0.81638       -0.90799        0.08416
H          1.88871        0.45486       -0.00326
H          0.13002        3.72692        2.43830
H         -3.40227       -1.66746        2.37874
H         -4.52705       -0.07607        3.81056
H         -5.20043        1.21515        5.91421
H         -3.62530        2.09227        7.54125
H         -3.05770        3.34853        6.45511
H         -5.04318        4.32559        6.54369
H         -6.15618        2.82257        4.54455
H         -4.45717        4.29675        3.41801
H         -5.60813        1.58635        2.64371
H         -3.14010        2.96198        2.48568
