37

C          0.90772       -0.05801       -0.02164
C          0.47307        1.32427       -0.46942
C         -0.64891        1.48399       -1.32251
C         -1.06837        2.78052       -1.65339
C         -0.33637        3.88780       -1.19577
C          0.79865        3.78018       -0.36433
C          1.19327        2.46931        0.01361
C          2.30509        2.34836        0.87079
C          3.01973        3.45387        1.32849
C          2.65378        4.74262        0.95165
C          3.40038        5.83663        1.42443
C          3.06526        7.14048        1.07267
C          1.97770        7.36278        0.24439
C          1.23002        6.27979       -0.23021
C          1.53818        4.93292        0.10255
C         -2.26549        3.04359       -2.53743
C         -3.21656        1.85732       -2.62915
C         -2.42989        0.59829       -2.94495
C         -1.43528        0.28878       -1.82660
H          0.38256       -0.87321       -0.52138
H          0.72486       -0.17280        1.05203
H          1.97085       -0.21218       -0.23495
H         -0.68996        4.86732       -1.50708
H          2.64812        1.37337        1.20826
H          3.87094        3.28800        1.98503
H          4.25719        5.67797        2.07598
H          3.65199        7.97551        1.44483
H          1.70420        8.37590       -0.03854
H          0.39094        6.51612       -0.87743
H         -1.89923        3.29879       -3.53983
H         -2.82498        3.90824       -2.16002
H         -3.96510        2.04289       -3.40746
H         -3.75730        1.73083       -1.68285
H         -3.10848       -0.25151       -3.07970
H         -1.89194        0.73025       -3.89258
H         -1.97870       -0.14088       -0.97560
H         -0.75183       -0.47257       -2.21798
