17

C          0.89143        0.03946        0.12465
C          0.57697        1.12034       -0.88483
O         -0.81196        1.50203       -0.76267
C         -0.97038        2.87425       -1.18895
C         -2.15077        3.48963       -0.47176
C          0.33695        3.50965       -0.81537
O          0.60677        4.69050       -0.73014
C          1.31535        2.40005       -0.62122
O          2.48977        2.55436       -0.35403
H          0.25716       -0.83753       -0.04117
H          0.69516        0.38569        1.14574
H          1.94040       -0.26646        0.06501
H          0.76139        0.79188       -1.91266
H         -1.09282        2.89169       -2.27662
H         -2.29303        4.53428       -0.76496
H         -3.06721        2.93239       -0.69185
H         -2.01154        3.45682        0.61478
