11

O         -1.90389       -0.03944        0.00897
C         -0.68937        0.02522        0.00529
N          0.21281       -1.03817        0.00339
N          1.51168       -0.57712       -0.00416
C          1.33719        0.71130       -0.00529
N          2.52931        1.56161       -0.01414
O          2.30219        2.78208       -0.01443
O          3.64605        1.02782       -0.02095
N          0.06368        1.15688        0.00099
H         -0.02269       -2.02384        0.00400
H         -0.26773        2.10647       -0.00018
