31

C          1.54955       -0.04998       -0.11891
C          0.80563       -1.34705        0.16924
C          0.86207       -1.78650        1.65910
C          0.16771       -0.74442        2.55170
C          0.33290       -3.26029        1.83500
C          0.24207       -3.73828        3.31577
C          1.52488       -3.61363        4.13305
C          1.30104       -4.21560        1.12923
O          2.51522       -4.03008        1.06419
N          0.77042       -5.35369        0.59949
C         -0.47647       -5.40969        0.07118
O         -0.77708       -6.23982       -0.77993
N         -1.35559       -4.46008        0.47905
C         -1.08521       -3.38619        1.27680
O         -1.99707       -2.61102        1.56042
H          1.06254        0.80741        0.35369
H          1.56733        0.13656       -1.19783
H          2.58470       -0.10357        0.23174
H         -0.23539       -1.22983       -0.15407
H          1.24404       -2.12441       -0.46674
H          1.92099       -1.77581        1.95220
H         -0.85417       -0.53637        2.22322
H          0.13469       -1.05153        3.59960
H          0.71320        0.20494        2.52940
H         -0.55353       -3.19188        3.83837
H         -0.06965       -4.79177        3.34339
H          1.88593       -2.58299        4.17852
H          1.34047       -3.94163        5.16171
H          2.32274       -4.24270        3.72853
H          1.43762       -5.96888        0.15263
H         -2.28626       -4.50693        0.08751
