17

O          1.06026        0.07631        0.19342
C          2.27045       -0.03994        0.09331
O          2.95704       -0.96286        0.80904
C          3.13391        0.80298       -0.79054
C          2.75685        2.11896       -1.10053
O          1.65127        2.68189       -0.52782
C          3.52790        2.90019       -1.96748
C          4.68894        2.37597       -2.53430
C          5.08850        1.07643       -2.23019
C          4.31610        0.30065       -1.36206
O          4.74514       -0.96554       -1.04986
H          3.88016       -1.06134        0.49147
H          1.44267        3.52945       -0.95093
H          3.24340        3.92300       -2.19998
H          5.28914        2.98791       -3.20416
H          6.00579        0.69199       -2.66771
H          5.42991       -1.23146       -1.69218
