27

C          1.25330       -0.19322        0.07378
N          0.57326       -1.47492       -0.07125
C         -0.90084       -1.32801       -0.23400
C         -1.25839       -0.77437       -1.61655
C         -1.55118       -2.73063        0.00871
O         -0.98251       -3.28440        1.20604
C         -3.05791       -2.81662        0.15103
C         -3.88279       -1.70985        0.40004
C         -5.26925       -1.85769        0.50737
C         -5.85239       -3.11622        0.38877
C         -5.04944       -4.23136        0.17027
C         -3.66584       -4.08194        0.05495
H          0.85652        0.37491        0.92099
H          1.18305        0.41467       -0.83276
H          2.31565       -0.37089        0.26845
H          0.95528       -1.96406       -0.88311
H         -1.25056       -0.64363        0.54831
H         -0.81723       -1.38139       -2.41473
H         -2.33998       -0.75429       -1.77783
H         -0.90076        0.25326       -1.73669
H         -1.24886       -3.38940       -0.81712
H         -0.08186       -2.90003        1.23758
H         -3.46925       -0.71296        0.51856
H         -5.89338       -0.98703        0.69205
H         -6.92910       -3.22925        0.47952
H         -5.49604       -5.21918        0.09769
H         -3.04940       -4.96661       -0.09642
