23

C         -3.57376       -0.26007       -0.00283
C         -2.94976       -1.49962        0.00441
C         -1.55317       -1.58012        0.00387
C         -0.73221       -0.42356       -0.00278
C         -1.39492        0.82167       -0.00739
C         -2.80044        0.89706       -0.00874
C         -0.61299        1.97041       -0.00987
N          0.73618        1.98491       -0.00703
C          1.37491        0.80832       -0.00443
C          2.76312        0.83510       -0.00219
C          3.52652       -0.33228       -0.00259
C          2.89009       -1.56268       -0.00564
C          1.49561       -1.61560       -0.00592
C          0.70367       -0.43765       -0.00418
H         -4.65844       -0.19317       -0.00316
H         -3.54508       -2.40930        0.01065
H         -1.11411       -2.57397        0.01026
H         -3.30074        1.86340       -0.01380
H         -1.06582        2.95898       -0.01350
H          3.26704        1.79929       -0.00045
H          4.61140       -0.27259       -0.00125
H          3.47192       -2.48074       -0.00775
H          1.03317       -2.59834       -0.00878
