23

O          1.12952        0.44689       -0.30330
N          2.14796        0.05117        0.27580
C          2.94674       -0.91623       -0.56416
C          4.30974       -0.30009       -0.91334
C          5.48700       -0.62285       -0.00115
C          6.15044       -1.95667       -0.32960
C          5.35693       -3.20156        0.04369
C          3.96065       -3.30974       -0.57368
C          2.89119       -2.35734       -0.01824
N          2.74503       -2.53970        1.47430
O          3.42499       -1.76075        2.14807
H          2.41546       -0.94963       -1.52921
H          4.57335       -0.60794       -1.93483
H          4.21005        0.79303       -0.96699
H          5.21691       -0.55513        1.05520
H          6.24545        0.15510       -0.16198
H          7.11081       -2.00014        0.20001
H          6.39608       -1.99152       -1.39848
H          5.30787       -3.29210        1.13428
H          5.93697       -4.07140       -0.29216
H          3.61611       -4.33970       -0.40422
H          4.02843       -3.19520       -1.66290
H          1.92402       -2.75302       -0.36597
