20

C          1.09481       -0.10612        0.35333
C          0.58761       -1.47346       -0.00940
O         -0.13712       -2.09671        0.77084
N          0.86138       -2.02378       -1.22678
C          1.75717       -1.66866       -2.24845
C          2.88807       -0.87004       -2.06396
C          3.73572       -0.57520       -3.13870
C          3.45169       -1.08727       -4.39850
O          4.24410       -0.81696       -5.47291
C          2.34822       -1.90458       -4.59556
C          1.51113       -2.20630       -3.51882
H          0.40531        0.34362        1.07544
H          1.11525        0.55480       -0.51644
H          2.08042       -0.18075        0.81710
H          0.28115       -2.83775       -1.39842
H          3.17359       -0.49798       -1.08764
H          4.61265        0.04148       -2.96720
H          4.96625       -0.23222       -5.19007
H          2.13712       -2.30537       -5.58296
H          0.64851       -2.84425       -3.69572
