26

C          0.97221        0.11691       -0.22627
C          0.33124        1.13812       -1.11515
O         -0.68139        0.94086       -1.77028
O          0.99020        2.32113       -1.01184
C          0.38848        3.42232       -1.69864
C         -0.80609        3.98723       -0.94196
C         -0.36937        4.75440        0.29703
C         -0.02810        3.88653        1.50428
O          0.66075        5.68264       -0.01133
C          1.72822        5.20592       -0.82038
C          2.85454        4.55990       -0.02341
O          1.33616        4.45333       -1.95779
H          0.64548       -0.88228       -0.52676
H          0.67388        0.30089        0.80900
H          2.06026        0.16128       -0.32094
H          0.06006        3.08090       -2.68782
H         -1.30893        4.69970       -1.60910
H         -1.53105        3.21174       -0.67507
H         -1.22354        5.36715        0.61186
H          0.31731        4.51142        2.33479
H         -0.90626        3.32263        1.83512
H          0.76557        3.16617        1.30765
H          2.16996        6.11850       -1.23701
H          3.74273        4.44383       -0.65372
H          3.11112        5.16820        0.84958
H          2.60743        3.56107        0.33611
