23

C          0.89318       -0.05448       -0.00751
C          0.48984        1.39253        0.25887
N          1.15500        2.37371       -0.59526
C          0.57112        3.71325       -0.55552
C          0.61168        4.44966        0.77830
C          2.61281        2.30329       -0.73804
C          3.52441        2.69565        0.43608
O          3.27103        1.94365        1.61457
H          0.79222       -0.30556       -1.06857
H          0.24521       -0.73195        0.55864
H          1.92321       -0.25333        0.30368
H         -0.59135        1.45375        0.07894
H          0.63168        1.61019        1.32097
H          1.03464        4.34312       -1.32502
H         -0.48071        3.63185       -0.85990
H          1.62481        4.75131        1.04904
H          0.01409        5.36531        0.70850
H          0.19591        3.85211        1.59414
H          2.88324        1.28690       -1.04711
H          2.89972        2.92595       -1.59592
H          4.56437        2.50394        0.15141
H          3.45787        3.76018        0.67108
H          2.43103        2.27220        1.97047
