14

C         -0.62495        1.29740       -0.05704
C          0.69938        1.12504        0.01996
O          1.34408       -0.08291        0.01956
C          0.52260       -1.19519       -0.36120
C         -0.85517       -1.15384        0.28678
C         -1.56896        0.13898       -0.09556
H         -1.04077        2.30023       -0.06292
H          1.40702        1.93970        0.11020
H          1.04795       -2.10736       -0.05941
H          0.44205       -1.21173       -1.45527
H         -1.45215       -2.02196       -0.01166
H         -0.74087       -1.18913        1.37783
H         -1.98812        0.05709       -1.10502
H         -2.40331        0.31282        0.59268
