30

C          1.20571       -0.05667       -0.11589
N          0.61359       -0.34763       -1.41835
S         -1.03999       -0.06461       -1.59729
O         -1.28933        1.21110       -0.96069
O         -1.33383       -0.25730       -2.99581
C         -1.75029       -1.42727       -0.71307
C         -1.35947       -2.68697       -1.22246
C         -1.70471       -3.90462       -0.61495
O         -1.11807       -4.95591       -1.26182
C         -1.23758       -6.27534       -0.76777
C         -2.53583       -3.87920        0.50763
N         -2.87512       -4.99988        1.28589
C         -2.88614       -2.61375        1.02838
C         -2.52960       -1.38141        0.43558
O         -2.93025       -0.33875        1.21582
C         -3.41710        0.86118        0.63721
H          0.80618       -0.73061        0.64677
H          1.03034        0.98137        0.17813
H          2.28655       -0.20817       -0.17403
H          1.12903       -0.07552       -2.25464
H         -0.71335       -2.72721       -2.10170
H         -0.89876       -6.36200        0.26857
H         -2.25734       -6.64486       -0.90685
H         -0.58608       -6.91469       -1.37293
H         -3.64060       -4.82852        1.93164
H         -3.05376       -5.83702        0.74803
H         -3.46593       -2.57557        1.95150
H         -2.68250        1.65174        0.81417
H         -3.68378        0.76918       -0.41922
H         -4.31704        1.16464        1.18170
