32

C          1.07053       -0.19067        0.00784
C          0.73408        0.94700        0.95911
C          1.15323        2.32526        0.43883
C          0.50137        2.76595       -0.88040
C         -1.04089        2.82384       -0.86548
C         -1.61781        3.78825        0.19927
C         -1.00976        5.18481        0.26331
C         -1.58729        3.07882       -2.28604
O         -3.00013        2.82140       -2.32765
C         -3.47607        3.72985       -3.31666
C         -2.61348        4.94078       -3.08934
O         -1.32819        4.40263       -2.76540
H          0.50652       -0.11463       -0.92629
H          0.81981       -1.15170        0.46850
H          2.13870       -0.19893       -0.23089
H         -0.33732        0.93070        1.18537
H          1.24981        0.76712        1.91028
H          0.94629        3.06593        1.21922
H          2.24190        2.33170        0.30061
H          0.90811        3.74554       -1.16016
H          0.82655        2.08111       -1.67347
H         -1.41343        1.82701       -0.59357
H         -2.70093        3.88394        0.05699
H         -1.49132        3.32787        1.18725
H         -1.12090        5.73210       -0.67403
H         -1.51114        5.76836        1.04291
H          0.05332        5.15578        0.51691
H         -1.11510        2.38202       -2.98980
H         -4.54314        3.92349       -3.18583
H         -3.30388        3.28835       -4.30469
H         -2.96606        5.51765       -2.22768
H         -2.55041        5.59963       -3.95849
