22

Cl         1.31898        1.66960       -0.21857
C         -0.11781        0.71857       -0.10297
C         -1.33746        1.39148       -0.00439
C         -2.53256        0.67244        0.09615
C         -2.53061       -0.73145        0.09962
C         -3.79481       -1.48418        0.19978
C         -4.70129       -1.41240       -0.87191
C         -5.91825       -2.09945       -0.84342
Cl        -6.95019       -1.92177       -2.22095
C         -6.26121       -2.88670        0.26270
Cl        -7.77703       -3.73839        0.28219
C         -5.37181       -2.97425        1.34922
Cl        -5.78369       -3.94946        2.73357
C         -4.14717       -2.27128        1.31976
Cl        -3.06622       -2.33928        2.68587
C         -1.29734       -1.39555       -0.01332
C         -0.09764       -0.67870       -0.10731
Cl         1.36964       -1.58344       -0.22709
H         -1.36573        2.47892       -0.00138
H         -3.46890        1.22273        0.18031
H         -4.45117       -0.81235       -1.74766
H         -1.26654       -2.48410       -0.02040
