27

C          1.23148        0.10822       -0.14037
C          0.81958       -0.72566       -1.30371
C          0.60602       -2.04885       -1.27523
C          0.01211       -2.38475       -2.58868
O         -0.33887       -3.51179       -2.89296
N         -0.03832       -1.19128       -3.30512
C         -0.57098       -0.95021       -4.58189
C         -1.57252       -1.78267       -5.10039
C         -2.10211       -1.55681       -6.37281
C         -1.60201       -0.51075       -7.14923
S         -2.24817       -0.29437       -8.78135
O         -2.02848       -1.52363       -9.51514
O         -3.56180        0.29186       -8.66297
O         -1.31435        0.81791       -9.48539
C         -0.59898        0.32580       -6.65637
C         -0.10343        0.11739       -5.36365
N          0.52559       -0.15859       -2.53904
H          1.03896       -0.41103        0.80516
H          0.66715        1.04638       -0.11640
H          2.29791        0.34463       -0.19261
H          0.72972       -2.75452       -0.47590
H         -1.97626       -2.60205       -4.50890
H         -2.89241       -2.20244       -6.75039
H         -1.64235        0.94462      -10.40000
H         -0.18634        1.12613       -7.26555
H          0.69874        0.75543       -4.99912
H         -0.09322        0.64984       -2.44841
