56

C          1.30651        1.03531       -1.12070
C          0.06658        1.51259       -0.34194
C         -1.13548        1.43401       -1.26227
C         -1.60327        2.55916       -1.94785
C         -2.69882        2.44505       -2.80437
C         -3.32282        1.20795       -2.99531
C         -2.85504        0.07895       -2.32246
O         -3.50260       -1.11231       -2.45467
C         -1.76534        0.19486       -1.46361
C         -1.27880       -0.90639       -0.60744
O         -0.98883       -2.01631       -1.03943
C         -1.12985       -0.49680        0.83640
C         -0.71353       -1.60284        1.76461
O         -1.51020       -2.07820        2.57387
C          0.77597       -1.89832        1.80108
O          1.33237       -1.83910        0.49774
C          1.11361       -3.29202        2.35715
O          0.37635       -4.26415        2.17118
C          2.47590       -3.50048        2.96561
C          3.51137       -3.92676        1.95954
N          4.52165       -4.71065        2.43215
O          3.51309       -3.57290        0.78646
C          2.91651       -2.26816        3.69656
O          3.19363       -2.34682        4.89399
C          2.87102       -0.95909        2.87089
N          3.80669        0.03451        3.43736
C          4.17991        1.10454        2.51416
C          3.51603        0.57830        4.75721
C          1.34207       -0.70861        2.63009
C          1.03906        0.62372        1.89428
O          0.97329        1.68102        2.86233
C         -0.24077        0.76280        1.00924
H          1.27301        1.34355       -2.17224
H          1.41111       -0.05114       -1.11384
H          2.22308        1.46446       -0.70233
H          0.23993        2.56764       -0.08846
H         -1.12422        3.52743       -1.81630
H         -3.07280        3.32692       -3.32046
H         -4.18555        1.15229       -3.65311
H         -4.17317       -1.04412       -3.15386
H         -2.15195       -0.23350        1.15331
H          0.90921       -2.53837       -0.05326
H          2.36325       -4.30035        3.71033
H          5.23324       -5.00440        1.77337
H          4.56151       -5.07703        3.37481
H          3.32058       -1.22311        1.90604
H          3.46785        1.93505        2.51730
H          5.15697        1.51413        2.79338
H          4.28448        0.74190        1.48542
H          2.56296        1.10923        4.79961
H          3.52438       -0.18352        5.53865
H          4.30614        1.28193        5.05160
H          0.85058       -0.68721        3.61508
H          1.90496        0.85312        1.27975
H          0.20167        1.54031        3.44044
H         -0.90780        1.46251        1.54057
