20

C          0.91585        0.12630       -0.13065
O          0.45128        0.60915       -1.39185
C          0.86381        1.87486       -1.69075
O          1.56997        2.55957       -0.96157
C          0.32599        2.31825       -3.05403
C          0.84948        1.37277       -4.14322
C         -1.20812        2.30684       -3.02769
C          0.81039        3.74550       -3.35564
H          0.53002       -0.88760        0.00665
H          0.53804        0.75358        0.68278
H          2.00947        0.08562       -0.11496
H          0.48881        0.34844       -3.99649
H          0.52651        1.69716       -5.13875
H          1.94491        1.33474       -4.13838
H         -1.59278        2.94070       -2.22042
H         -1.62374        2.67329       -3.97299
H         -1.60182        1.29751       -2.86304
H          0.46316        4.45233       -2.59302
H          1.90522        3.79769       -3.37484
H          0.44200        4.09404       -4.32698
