61

C          1.20263        0.03687        0.30538
C          0.58910        1.15318        1.16487
C          1.05455        2.52098        0.65440
C         -0.94126        1.05105        1.06197
C          1.08124        1.00511        2.60879
O          2.18010        0.56420        2.92366
O          0.17324        1.48191        3.49546
C          0.50273        1.32742        4.87413
O          0.39904        0.00846        5.44174
C         -0.53763       -0.84721        4.95215
O         -1.26567       -0.63885        3.99271
C         -0.43359       -2.19563        5.68118
N         -1.67740       -2.94409        5.90667
C         -2.85824       -2.66787        5.27182
O         -3.53146       -1.66488        5.27329
C         -2.80249       -4.01448        4.47823
N         -2.41399       -3.79235        3.05813
C         -3.03131       -4.20996        1.91413
O         -2.60280       -3.77748        0.83881
C         -4.19693       -5.22658        1.95366
N         -3.66219       -6.52070        2.44058
C         -5.42268       -4.73030        2.71148
C         -5.77968       -3.36924        2.66905
C         -6.87384       -2.88842        3.39102
C         -7.65426       -3.76304        4.14003
C         -7.34673       -5.11997        4.16022
C         -6.24482       -5.60052        3.44850
C         -1.70442       -4.36128        5.51541
S         -0.05974       -4.81244        4.92493
C          0.63138       -3.11007        5.01400
C          1.03946       -2.76249        3.57417
C          1.90197       -3.13516        5.87809
H          0.87316        0.11297       -0.73725
H          0.91261       -0.95233        0.67859
H          2.29760        0.07930        0.31029
H          0.73663        2.68947       -0.38025
H          0.64687        3.33159        1.26933
H          2.14682        2.60602        0.68972
H         -1.29956        0.09131        1.44995
H         -1.44213        1.84423        1.62839
H         -1.27497        1.13395        0.02156
H          1.52275        1.68708        5.05719
H         -0.16058        1.98175        5.44886
H         -0.12762       -1.95565        6.70922
H         -3.69060       -4.63134        4.61329
H         -1.77409       -3.03408        2.85088
H         -4.51159       -5.37417        0.91152
H         -4.31220       -7.25021        2.15064
H         -2.80582       -6.71510        1.91689
H         -5.19351       -2.65317        2.09402
H         -7.10750       -1.82659        3.37423
H         -8.50132       -3.38630        4.70658
H         -7.95923       -5.80688        4.73823
H         -6.02639       -6.66403        3.49917
H         -2.06063       -4.99167        6.33937
H          1.47920       -1.76535        3.51953
H          1.80464       -3.45243        3.19609
H          0.20446       -2.79018        2.87097
H          1.68980       -3.43398        6.91093
H          2.65877       -3.81876        5.47687
H          2.35575       -2.13686        5.91412
