20

N          1.08450       -0.01187        0.05215
C          2.34546       -0.01187        0.05215
C          3.86546       -0.01187        0.05215
C          4.47312       -0.87269        1.13915
O          5.34371       -1.69752        0.85971
N          4.15650       -0.69657        2.46171
C          3.38068        0.32991        3.01995
C          3.99637        1.54212        3.34159
C          3.24763        2.57031        3.91974
C          1.88738        2.39096        4.17531
C          1.27985        1.16608        3.89666
C          2.03171        0.12418        3.35204
Cl         1.27439       -1.41607        3.14773
H          4.20811       -0.38696       -0.91884
H          4.23601        1.01240        0.16385
H          4.75863       -1.21543        3.09311
H          5.05728        1.69433        3.15916
H          3.72437        3.51420        4.17601
H          1.30214        3.19838        4.61021
H          0.22395        1.02517        4.11492
