33

O          1.25159       -0.48474        0.22855
N          2.38917       -0.15455       -0.13317
O          3.05870        0.77659        0.32857
C          3.04995       -1.02922       -1.08284
C          4.24896       -1.63311       -0.69840
C          4.85480       -2.55989       -1.56919
N          6.05233       -3.17591       -1.04723
O          5.89741       -4.18618       -0.34879
O          7.12437       -2.60112       -1.26723
C          4.30740       -2.89231       -2.82304
N          4.76318       -3.77637       -3.83104
C          5.44790       -5.03291       -3.54781
C          6.17896       -3.88769       -4.17771
C          3.09176       -2.24562       -3.16326
C          2.45691       -1.33641       -2.30259
C          1.21100       -0.69131       -2.73250
O          0.20998       -1.55663       -2.98125
N          1.10957        0.58853       -2.84596
C         -0.17251        1.13921       -3.16608
C         -0.35064        2.59444       -2.80860
C         -0.21365        2.19210       -4.24172
H          4.69572       -1.40884        0.27043
H          5.61583       -5.30176       -2.51940
H          5.12680       -5.84500       -4.18886
H          6.35307       -3.91868       -5.24623
H          6.88376       -3.30084       -3.61286
H          2.64612       -2.45147       -4.13877
H          0.42345       -2.48346       -2.78791
H         -1.04804        0.50029       -3.08165
H         -1.32287        2.91122       -2.45177
H          0.48011        3.11827       -2.34965
H          0.70690        2.43629       -4.75697
H         -1.09637        2.22942       -4.86932
