17

N         -4.18458        0.09684       -0.23502
C         -2.79794       -0.00002       -0.01729
C         -2.05322        1.19027       -0.02992
C         -0.65775        1.17307        0.02702
C          0.01368       -0.04354        0.06009
Br         1.90235       -0.07139        0.12308
C         -0.69638       -1.24036        0.03014
C         -2.10172       -1.22795       -0.02319
C         -2.76144       -2.56124       -0.05927
O         -2.19081       -3.62611       -0.22066
O         -4.09135       -2.53200        0.15900
H         -4.61787        0.91740        0.17543
H         -4.66828       -0.76904        0.02165
H         -2.56240        2.14933       -0.09809
H         -0.10976        2.11181        0.02542
H         -0.16191       -2.18853        0.03984
H         -4.34326       -3.47912        0.10155
