36

C          2.41242       -0.20015       -0.34661
C          1.00706       -0.10131        0.26448
C          1.06063        0.38704        1.74576
O          0.90731       -0.38043        2.69878
N          1.14510        1.72782        2.01359
C          2.13749        2.64408        1.60128
C          3.46413        2.23331        1.43648
C          4.44924        3.15351        1.07827
C          4.11145        4.48959        0.89987
O          5.12045        5.33822        0.53259
C          2.80050        4.93269        1.10399
Cl         2.45948        6.61659        0.87674
C          1.81288        4.01153        1.48090
Cl         0.17599        4.52464        1.76209
C          0.38899       -1.53067        0.22954
C         -1.10203       -1.56464        0.57790
C         -1.91089       -0.60354       -0.28396
C         -1.34325        0.80898       -0.23227
C          0.13607        0.82872       -0.61640
H          3.11365       -0.68289        0.34219
H          2.40445       -0.78625       -1.27327
H          2.80901        0.78089       -0.61942
H          0.76537        1.95639        2.92879
H          3.76046        1.20467        1.62784
H          5.47995        2.83070        0.95075
H          4.73827        6.23193        0.44129
H          0.50424       -1.95419       -0.77770
H          0.93162       -2.20273        0.90630
H         -1.25051       -1.31708        1.63483
H         -1.48257       -2.58363        0.44173
H         -2.95430       -0.59560        0.05087
H         -1.91260       -0.95799       -1.32211
H         -1.47882        1.22561        0.77259
H         -1.90625        1.45274       -0.91787
H          0.49767        1.86206       -0.58385
H          0.22194        0.51611       -1.66635
