37

O          3.10516        0.56151        0.87775
C          1.98044        0.27151        0.47088
O          0.97323        1.21796        0.38849
C         -0.34908        0.83929        0.10287
C         -1.33177        1.82326        0.21024
C         -2.66691        1.47766        0.00883
C         -3.00475        0.16040       -0.30109
C         -2.00530       -0.80869       -0.42664
C         -0.65970       -0.47429       -0.22968
C          0.42209       -1.45299       -0.31560
O          0.03301       -2.70235       -0.74718
C          1.67362       -1.11765        0.04376
C          2.86343       -2.04778        0.04795
C          3.01951       -2.73431        1.38433
C          3.85178       -2.35311        2.36818
O          4.65646       -1.23424        2.31662
C          3.90502       -3.10690        3.62241
C          4.82002       -2.84168        4.64677
C          4.76599       -3.55453        5.85083
C          3.78693       -4.52877        6.04943
C          2.88043       -4.81371        5.03362
C          2.96590       -4.11257        3.83179
O          2.07143       -4.49098        2.82001
C          2.16836       -3.93751        1.56035
O          1.51370       -4.38029        0.61742
H         -1.06295        2.84421        0.46467
H         -3.44614        2.22962        0.10350
H         -4.04650       -0.11809       -0.44166
H         -2.28860       -1.83263       -0.66322
H          0.65783       -3.39637       -0.44684
H          2.77540       -2.78745       -0.75847
H          3.78003       -1.50716       -0.21944
H          4.27195       -0.56094        1.71436
H          5.58224       -2.07545        4.51818
H          5.48547       -3.34146        6.63776
H          3.73640       -5.06934        6.99150
H          2.11935       -5.57634        5.17171
