54

C          1.62283        0.43648       -0.30982
C          0.91966       -0.01715       -1.58137
C          1.00863       -1.52571       -1.82161
C          0.23069       -2.38695       -0.82874
O         -1.18984       -2.21413       -0.96389
C         -1.77606       -1.41458       -0.04416
O         -1.23380       -0.68400        0.77028
C         -3.23464       -1.50994       -0.17000
C         -3.92489       -0.34327       -0.53010
C         -5.31652       -0.35812       -0.62745
C         -6.02139       -1.53002       -0.35482
C         -5.33556       -2.69371        0.00342
C         -3.93530       -2.69193        0.10358
C         -3.28097       -3.96858        0.46818
O         -3.71192       -5.05448        0.11201
O         -2.21315       -3.74597        1.26435
C         -1.37958       -4.87601        1.57670
C         -1.37639       -5.12953        3.09181
C         -2.78699       -5.46054        3.63229
C         -3.36643       -6.79147        3.17144
C         -0.35551       -6.21681        3.48774
C          1.11734       -5.88929        3.20376
C          1.64827       -4.59837        3.83071
C          1.51142       -4.55768        5.34465
H          1.23223       -0.06122        0.58084
H          1.48942        1.51440       -0.17279
H          2.69681        0.23323       -0.36495
H         -0.12635        0.30568       -1.56585
H          1.38802        0.49652       -2.42970
H          0.62866       -1.72757       -2.83047
H          2.06215       -1.83032       -1.80590
H          0.42725       -3.44091       -1.05703
H          0.56408       -2.23393        0.20367
H         -3.37812        0.57522       -0.73514
H         -5.85191        0.54551       -0.91100
H         -7.10744       -1.53881       -0.42027
H         -5.89767       -3.60255        0.21388
H         -1.65659       -5.77389        1.01422
H         -0.37527       -4.59776        1.24326
H         -1.09765       -4.18691        3.58018
H         -2.75149       -5.46384        4.72910
H         -3.48217       -4.65842        3.35776
H         -2.80094       -7.63420        3.57998
H         -4.39875       -6.88875        3.52288
H         -3.37715       -6.88018        2.08259
H         -0.46534       -6.44252        4.55554
H         -0.59031       -7.14760        2.95602
H          1.72589       -6.72893        3.56396
H          1.28369       -5.84766        2.12103
H          2.71069       -4.50376        3.57470
H          1.14880       -3.72736        3.39277
H          1.98387       -5.43085        5.80555
H          1.99666       -3.66048        5.74201
H          0.46180       -4.52952        5.65176
