44

N          0.58083       -0.26392       -0.04954
C         -0.03528        1.02317       -0.38652
C          0.42661        1.58755       -1.74447
N          0.22819        0.64865       -2.85348
C          0.77027        1.16721       -4.12032
C          2.31488        1.25809       -4.19869
N          2.97637        0.03371       -3.73310
C          4.44318        0.13192       -3.77188
C          5.07871        1.03344       -2.68421
N          4.54325        0.74912       -1.34784
C          5.20945        1.53074       -0.29211
C          4.84834        3.03693       -0.25764
N          3.40590        3.23843       -0.43040
C          2.99683        4.64035       -0.27475
C          3.23995        5.50328       -1.53195
N          2.95246        4.77939       -2.77952
H          0.30443       -0.95096       -0.74737
H          1.59577       -0.18123       -0.09661
H         -1.12385        0.90144       -0.38575
H          0.20973        1.74477        0.40075
H         -0.11304        2.52126       -1.93993
H          1.48461        1.82843       -1.65757
H          0.68375       -0.23903       -2.65500
H          0.42764        0.49284       -4.91439
H          0.33371        2.14809       -4.34547
H          2.59362        1.45703       -5.24036
H          2.64581        2.11368       -3.60499
H          2.70720       -0.16741       -2.77213
H          4.83164       -0.88499       -3.63605
H          4.78015        0.45486       -4.76420
H          6.16183        0.86320       -2.69545
H          4.90890        2.08306       -2.94615
H          3.55438        0.99097       -1.31333
H          4.89812        1.08977        0.66339
H          6.29725        1.40550       -0.34375
H          5.17651        3.44438        0.70570
H          5.39794        3.56001       -1.04814
H          3.15725        2.99015       -1.38904
H          1.91586        4.62610       -0.08656
H          3.45562        5.10176        0.60688
H          2.60489        6.39410       -1.47968
H          4.28156        5.84088       -1.55928
H          2.87739        5.45733       -3.53899
H          3.76310        4.20747       -3.01322
