25

N          1.12550        0.23051       -0.00701
S          0.50125        0.84950        1.42535
O          1.24494        2.05912        1.67996
O         -0.93879        0.82971        1.31355
C          0.92789       -0.24949        2.74907
C          1.53573       -0.03236        3.97079
C          1.66372       -1.23670        4.71768
C          1.15716       -2.33390        4.06473
S          0.53702       -1.90210        2.52706
C          1.05786       -3.74159        4.55990
C          1.93458       -4.03146        5.78882
O          3.24372       -4.45219        5.40201
C          1.99125       -2.95733        6.86754
S          2.39783       -1.33885        6.27230
O          1.70010       -0.34096        7.05382
O          3.81070       -1.26329        5.96908
H          0.53570        0.53532       -0.78321
H          2.09051        0.54247       -0.12292
H          1.86311        0.94662        4.30557
H          1.32679       -4.43570        3.75372
H          0.00861       -3.92556        4.82320
H          1.50500       -4.92200        6.26558
H          3.68830       -3.75140        4.89088
H          1.02367       -2.87459        7.37227
H          2.75636       -3.20067        7.61358
