31

C          1.10334       -0.01384        0.02836
C          0.54980        1.35795        0.42203
C          1.00933        2.43812       -0.57244
O          0.49173        2.22063       -1.87677
C         -0.99257        1.35002        0.54002
C         -1.57970        0.37672        1.59103
C         -1.07899        0.66679        3.00954
C         -3.10440        0.36715        1.58722
C         -3.85735        1.54962        1.65691
C         -5.25324        1.50630        1.68958
C         -5.91625        0.28238        1.66388
C         -5.18410       -0.90080        1.60343
C         -3.78865       -0.85872        1.56557
H          0.61896       -0.40160       -0.87357
H          0.95686       -0.74354        0.83060
H          2.18075        0.04238       -0.16107
H          0.98057        1.62911        1.39313
H          0.66884        3.42480       -0.24083
H          2.10251        2.47449       -0.63488
H          0.90346        1.41430       -2.22993
H         -1.31273        2.37434        0.76961
H         -1.42846        1.10873       -0.43911
H         -1.24916       -0.63479        1.32390
H         -1.30194        1.69583        3.31209
H         -1.55114       -0.00322        3.73749
H          0.00175        0.51621        3.08885
H         -3.36730        2.51883        1.69544
H         -5.82221        2.43114        1.74089
H         -7.00184        0.25016        1.69537
H         -5.69865       -1.85767        1.59030
H         -3.23732       -1.79583        1.52739
