32

C          0.85400       -0.30383        0.07388
C          0.60783        1.19162        0.29703
C          1.46467        1.99298       -0.68245
N         -0.82924        1.42277        0.15845
C         -1.33888        2.71676        0.63914
C         -1.25803        3.89596       -0.36660
O         -2.01812        3.60342       -1.54005
C         -1.72058        5.24186        0.15327
C         -1.08084        6.40651       -0.32391
C         -1.46594        7.67858        0.10872
C         -2.50513        7.79323        1.01887
O         -2.92935        9.00758        1.48248
C         -3.15777        6.65479        1.48505
O         -4.18691        6.78085        2.37474
C         -2.78259        5.38639        1.05741
H          0.56812       -0.61313       -0.93808
H          0.28525       -0.90824        0.78922
H          1.91403       -0.54548        0.21098
H          0.92363        1.42376        1.32142
H          1.03212        1.99682       -1.68918
H          1.58057        3.02740       -0.34720
H          2.47475        1.57578       -0.75854
H         -1.17596        1.19384       -0.76848
H         -2.39639        2.53328        0.86591
H         -0.86246        2.98296        1.59024
H         -0.22090        4.02033       -0.68316
H         -1.58610        2.84613       -1.96483
H         -0.27521        6.32156       -1.05110
H         -0.95015        8.55082       -0.27931
H         -2.39083        9.69559        1.05458
H         -4.27417        7.74559        2.50884
H         -3.33472        4.52820        1.42870
