26

O         -2.81852       -0.53765       -0.78085
C         -1.69725       -0.35983       -0.32326
N         -0.77837       -1.35994       -0.26885
C          0.56895       -1.13545       -0.24929
O          1.34639       -1.91192       -0.80218
C          1.04748        0.14296        0.44686
O          2.27254        0.52804       -0.21830
C          1.33410       -0.07117        1.96155
O          2.71738       -0.45668        2.13308
C          0.46103       -1.18783        2.54496
O          0.71749       -2.38555        2.44967
N         -0.70397       -0.79871        3.15044
C         -0.93938        0.43247        3.68142
O         -1.81565        0.61058        4.51688
N         -0.10347        1.43228        3.29484
C          1.14341        1.20734        2.78434
O          2.06942        1.98355        3.01488
C          0.02198        1.25998        0.22275
O          0.29588        2.45753        0.21767
N         -1.28387        0.87120        0.08484
H         -1.06303       -2.21171       -0.73959
H          2.78465       -0.29952       -0.34852
H          3.24191        0.37071        2.06716
H         -1.25166       -1.54874        3.55746
H         -0.19619        2.28410        3.83701
H         -1.94215        1.62145       -0.09394
