23

C          0.73623       -0.08113        0.06367
C          0.59533       -0.79165       -1.27164
O          1.12374       -2.12539       -1.21674
C          2.47488       -2.22082       -1.26037
O          3.27411       -1.29998       -1.31416
C          2.86685       -3.64225       -1.17019
C          2.17525       -4.63271       -1.88796
C          2.58527       -5.96791       -1.81503
C          3.67523       -6.29700       -1.01674
O          4.12558       -7.58299       -0.90346
C          4.35340       -5.31015       -0.30184
O          5.41493       -5.65005        0.48690
C          3.96826       -3.98031       -0.37846
H          0.30288       -0.68069        0.87036
H          0.23726        0.89194        0.03632
H          1.78785        0.08265        0.31834
H         -0.46721       -0.88490       -1.51979
H          1.06795       -0.22515       -2.08213
H          1.32811       -4.36418       -2.51518
H          2.04972       -6.72269       -2.38207
H          3.58789       -8.14821       -1.48463
H          5.49796       -6.61955        0.38841
H          4.51326       -3.22051        0.17468
