31

C          0.93254       -0.10470        0.04514
O          0.38622       -0.73414       -1.10949
C          0.88208       -0.28709       -2.30270
C         -0.01906       -0.29638       -3.36812
C          0.38415        0.12262       -4.63643
C          1.70461        0.53622       -4.84418
S          2.14069        1.03661       -6.48487
O          2.13087       -0.14047       -7.32772
O          1.38345        2.23180       -6.79561
C          3.77381        1.55381       -6.51264
C          4.88293        0.75029       -6.44285
O          6.01053        1.50446       -6.48143
C          5.63985        2.82889       -6.63176
S          6.85107        4.13936       -6.74486
N          7.66470        4.20277       -5.27430
O          7.81162        3.73983       -7.74413
O          6.09280        5.36591       -6.82511
C          4.24957        2.87899       -6.65001
C          2.61683        0.53455       -3.78601
C          2.20255        0.11411       -2.51605
H          0.32589       -0.40380        0.90538
H          0.88219        0.98659       -0.03799
H          1.95793       -0.43737        0.23218
H         -1.04357       -0.62346       -3.20561
H         -0.33299        0.12143       -5.45538
H          5.03289       -0.31843       -6.35914
H          8.66325        4.31548       -5.45795
H          7.28870        4.96896       -4.71470
H          3.66303        3.78289       -6.76226
H          3.65010        0.84126       -3.91069
H          2.93434        0.08613       -1.71431
