21

C          0.86039        0.02642       -0.00798
O          0.35398       -0.37539        1.26259
C          0.81091       -1.59345        1.68585
C         -0.12831       -2.41083        2.32136
C          0.23628       -3.67230        2.80428
C          1.55268       -4.11335        2.66908
C          1.98563       -5.41466        3.15005
C          3.26032       -5.78350        2.99138
C          4.26134       -4.91644        2.34460
O          5.41905       -5.29282        2.20772
O          3.82709       -3.67248        1.90729
C          2.48289       -3.27505        2.05697
C          2.13285       -2.01686        1.56842
H          0.30464        0.91548       -0.32128
H          0.69929       -0.75353       -0.76058
H          1.91764        0.30178        0.04926
H         -1.15413       -2.06616        2.42968
H         -0.51616       -4.29486        3.28149
H          1.26640       -6.06903        3.62994
H          3.62308       -6.74532        3.33278
H          2.89803       -1.38808        1.12784
