21

C          0.88973       -0.06761       -0.12270
C          0.43349       -0.94980        1.03169
C          0.85044       -0.42238        2.42188
C          0.36233        1.01095        2.71948
C         -1.14877        1.19848        2.69537
C          0.40959       -1.38899        3.53470
O          1.06717       -2.64431        3.41322
H          0.38451        0.90229       -0.11485
H          0.65752       -0.55094       -1.07731
H          1.97048        0.10142       -0.08398
H         -0.65379       -1.07871        0.98125
H          0.86921       -1.94375        0.87571
H          1.94933       -0.39848        2.43161
H          0.73273        1.31374        3.70721
H          0.81604        1.71009        2.00756
H         -1.64341        0.57514        3.44572
H         -1.39711        2.24153        2.91788
H         -1.56984        0.96184        1.71428
H          0.67436       -0.98272        4.51643
H         -0.67109       -1.56396        3.52362
H          0.64665       -3.12812        2.68238
