44

O          1.58620       -0.02139       -1.86753
C          2.45827       -0.06581       -1.01112
C          3.11712        1.17544       -0.55171
C          2.43634        2.39698       -0.47566
O          1.09175        2.45980       -0.70433
C          3.11254        3.55891       -0.10300
C          4.47137        3.50144        0.20987
C          5.14621        2.28062        0.15940
O          6.45826        2.23413        0.53120
C          4.47184        1.11404       -0.22280
C          5.14066       -0.20252       -0.29073
O          6.34351       -0.31441       -0.50341
C          4.30978       -1.41868       -0.10937
C          4.89547       -2.61971        0.34717
N          6.24485       -2.69625        0.74794
C          7.07484       -3.72744        0.09905
C          7.34114       -3.41327       -1.38111
O          8.06871       -2.19632       -1.53370
C          4.07062       -3.74091        0.46300
C          2.71526       -3.67881        0.12720
C          2.12038       -2.48968       -0.32229
N          0.74517       -2.52467       -0.60474
C         -0.11683       -1.59202        0.14385
C         -1.30584       -1.17596       -0.72827
O         -1.94259       -2.33246       -1.27703
C          2.94654       -1.35307       -0.45102
H          0.83003        3.37685       -0.88909
H          2.59157        4.50990       -0.02794
H          4.98161        4.41099        0.51614
H          6.81867        3.13109        0.62163
H          6.70630       -1.78336        0.63865
H          8.03220       -3.74261        0.63287
H          6.63532       -4.72459        0.20578
H          7.94709       -4.21242       -1.81942
H          6.41487       -3.33991       -1.95981
H          7.47722       -1.46414       -1.24897
H          4.46648       -4.67586        0.85240
H          2.11726       -4.58052        0.24482
H          0.35966       -3.46585       -0.55227
H         -0.48784       -2.12474        1.02791
H          0.40411       -0.69916        0.50239
H         -2.04159       -0.62806       -0.13216
H         -0.99246       -0.53604       -1.55878
H         -1.27711       -2.69510       -1.89328
