38

C          1.00949       -0.30947        0.15751
C          0.75457        0.55141        1.37903
O          1.07817        1.91321        1.08205
C          2.36103        2.30948        1.23960
O          3.27364        1.57242        1.60380
C          2.55527        3.81225        0.97755
C          2.10582        4.31840       -0.41148
C          0.63978        4.46999       -0.65824
C         -0.23562        3.46073       -1.01019
N         -1.50565        3.96185       -0.97364
C         -1.47233        5.31863       -0.76718
C         -2.52216        6.23963       -0.69262
C         -2.19023        7.58183       -0.49743
C         -0.86134        7.98099       -0.37575
C          0.17479        7.03963       -0.41643
C         -0.13281        5.67696       -0.60978
N          2.24117        4.66658        2.14562
C          3.30676        5.39417        2.80743
C          0.96271        4.77541        2.66095
O         -0.02247        4.12274        2.34987
H          0.52198        0.11619       -0.72552
H          0.63598       -1.32499        0.31123
H          2.07989       -0.35879       -0.06481
H         -0.31150        0.52671        1.62950
H          1.30354        0.19059        2.25562
H          3.65182        3.86755        0.88875
H          2.58983        5.28779       -0.59234
H          2.50878        3.63960       -1.17606
H         -0.07267        2.40843       -1.19190
H         -2.34862        3.41753       -1.08468
H         -3.55662        5.92581       -0.78114
H         -2.98356        8.32292       -0.44078
H         -0.62586        9.03303       -0.23943
H          1.20504        7.36249       -0.30938
H          3.15094        6.46521        2.65024
H          3.25834        5.19049        3.88253
H          4.29185        5.10396        2.43562
H          0.90298        5.52839        3.46528
