39

N          1.16402       -0.18183       -0.00651
C          0.29044       -1.34341        0.21362
C          0.77010       -2.54778       -0.60320
N          0.94412       -3.28337        0.63112
C          0.41789       -4.59091        0.81405
C         -0.69814       -4.87326        1.60631
F         -1.41421       -3.88951        2.16879
C         -1.13081       -6.17691        1.81161
C         -0.42405       -7.24518        1.24656
C         -0.88907       -8.62745        1.53260
O         -1.90066       -8.78418        2.20633
C         -0.09064       -9.74981        0.98942
C         -0.36141      -11.18306        1.18808
O          0.30914      -12.09947        0.73629
O         -1.43925      -11.44733        1.93605
C          0.99004       -9.42820        0.26079
N          1.43568       -8.15655       -0.05387
C          2.73507       -7.98468       -0.75006
C          3.60093       -9.06340       -1.35140
C          2.80840       -8.16153       -2.24687
C          0.70980       -7.02672        0.44136
C          1.07523       -5.68296        0.20510
F          2.10641       -5.40168       -0.61099
C          0.72645       -2.12233        1.45559
H          0.99031        0.58395        0.64400
H          2.16047       -0.38981        0.06996
H         -0.78209       -1.13780        0.14743
H          0.01420       -2.97634       -1.26869
H          1.72116       -2.44916       -1.13720
H         -2.00955       -6.34884        2.42907
H         -1.48918      -12.42327        1.98114
H          1.60552      -10.22350       -0.14543
H          3.33317       -7.19615       -0.29545
H          4.67591       -8.91382       -1.31041
H          3.32219      -10.10636       -1.30608
H          1.95591       -8.59393       -2.75844
H          3.33602       -7.40883       -2.81921
H          1.66852       -1.81494        1.92608
H         -0.02980       -2.21338        2.23528
