58

C          1.47385       -0.17393        0.11973
C          1.37514       -1.53432        0.79292
C          2.06497       -1.63803        2.16928
C          1.66715       -0.60962        3.25068
C          0.15877       -0.54570        3.49026
C         -0.45702       -1.28033        4.69046
C         -0.45406       -0.67387        6.09859
C         -1.53743        0.30937        6.56895
S         -3.27434       -0.05525        6.32874
O         -3.51393       -1.42939        6.67641
O         -3.99574        1.01223        7.00187
N         -3.53369        0.27259        4.73618
S         -4.13578       -0.74082        3.60277
O         -4.06735       -2.11623        4.02829
O         -5.37800       -0.15079        3.14806
C         -2.97172       -0.56620        2.29284
C         -2.39378        0.77048        1.79581
C         -2.26540        2.18809        2.42227
C         -1.83134        2.68996        3.81749
C         -0.39830        2.79344        4.37605
C          0.63250        3.60480        3.60001
C          0.67743        5.07421        4.03414
C          1.25973        5.28492        5.43183
H          0.97508        0.60648        0.70119
H          0.98865       -0.20990       -0.86295
H          2.51723        0.11573       -0.03320
H          0.31918       -1.81838        0.86461
H          1.82502       -2.28154        0.12748
H          1.87039       -2.64263        2.56365
H          3.14844       -1.56988        2.01255
H          2.20121       -0.82337        4.18244
H          2.01869        0.37647        2.91731
H         -0.17401        0.47829        3.43141
H         -0.28926       -0.99351        2.61178
H         -1.49383       -1.50715        4.45713
H          0.03765       -2.25607        4.74388
H         -0.52893       -1.52936        6.78252
H          0.52532       -0.22137        6.29470
H         -1.44668        0.37520        7.66351
H         -1.36128        1.32394        6.22888
H         -4.10608        1.11513        4.69827
H         -2.17790       -1.27396        2.51570
H         -3.46637       -1.05046        1.43649
H         -1.41853        0.52984        1.35270
H         -3.00575        0.96846        0.89944
H         -1.65190        2.75215        1.70596
H         -3.27607        2.60427        2.30559
H         -2.19584        3.72668        3.85048
H         -2.42567        2.20866        4.57911
H         -0.51054        3.24010        5.37225
H          0.03782        1.82924        4.61641
H          1.62623        3.16869        3.77479
H          0.44871        3.52881        2.52462
H          1.29940        5.62940        3.32324
H         -0.32870        5.50411        3.99032
H          2.29778        4.94008        5.48260
H          1.24616        6.34960        5.68671
H          0.69372        4.76092        6.20733
