22

O          1.08968        0.03713        0.21279
C          2.29954       -0.00554        0.03629
O          3.06190       -0.98243        0.58785
C          3.08819        1.00028       -0.77685
C          2.75238        0.97056       -2.23248
C          2.63374       -0.14702       -3.03850
N          2.31227        0.26453       -4.30438
C          2.25261        1.63649       -4.35802
C          1.97715        2.48451       -5.43782
C          1.98083        3.86143       -5.19867
C          2.24745        4.36687       -3.92925
C          2.51815        3.50425       -2.86043
C          2.52212        2.10952       -3.07355
H          4.00894       -0.93122        0.36049
H          2.89130        1.98513       -0.33868
H          4.16376        0.82636       -0.65830
H          2.72489       -1.20274       -2.81766
H          2.14269       -0.34625       -5.09150
H          1.76507        2.09367       -6.42756
H          1.76881        4.54696       -6.01598
H          2.24182        5.44128       -3.76315
H          2.71816        3.91498       -1.87555
