28

C          0.80396       -0.11847        0.01564
C          0.46056        0.71148        1.22435
C         -0.07807        0.06922        2.33863
C         -0.37971        0.82715        3.44620
N         -0.17946        2.15569        3.51537
C          0.34575        2.82047        2.45527
C          0.68124        2.11391        1.27258
C          1.22081        2.82115        0.19003
C          1.42566        4.19429        0.26279
C          1.10369        4.91764        1.42323
C          1.29807        6.32232        1.54181
C          1.85863        7.20751        0.45922
C          0.96004        6.95531        2.74117
C          0.44307        6.19677        3.76388
N          0.24260        4.87149        3.67317
C          0.55967        4.21228        2.53103
H          0.28457        0.25911       -0.87089
H          0.50138       -1.16332        0.14546
H          1.88514       -0.10686       -0.15600
H         -0.26088       -0.99979        2.35055
H         -0.80255        0.37783        4.33977
H          1.49208        2.31544       -0.73361
H          1.84617        4.67760       -0.61327
H          1.14361        8.00487        0.22750
H          2.79517        7.66148        0.80096
H          2.07057        6.69114       -0.47720
H          1.09740        8.02316        2.87679
H          0.16594        6.64217        4.71455
