17

C          1.18872        0.04942        0.09383
C          0.52497       -0.35039        1.39311
O         -0.16164        0.47927        1.99070
N          0.83067       -1.61707        1.88953
C          2.04762       -2.23655        1.62932
C          2.35147       -3.44441        2.10289
F          3.53145       -4.03824        1.84920
C          1.38518       -4.17258        2.93997
O          1.58064       -5.31056        3.34534
N          0.23877       -3.47536        3.20876
C         -0.14209       -2.27308        2.64960
O         -1.31057       -1.91993        2.79039
H          0.57440        0.80865       -0.40025
H          1.26568       -0.80195       -0.58812
H          2.17839        0.46750        0.29460
H          2.78448       -1.70360        1.03902
H         -0.47702       -3.96250        3.72856
