8

C          1.07837       -0.03901       -0.00071
C          0.56793       -0.52514       -1.34461
F          1.02837       -1.78887       -1.54931
Cl        -1.20936       -0.55493       -1.35742
Cl         1.16905        0.52101       -2.64999
H          0.74105       -0.70211        0.80378
H          0.74144        0.97815        0.22599
H          2.17373       -0.05400        0.02517
