8

C          1.05598       -0.10126       -0.05071
N          0.34366       -1.15615        0.12494
C          1.14402       -2.36129        0.32561
H          0.56388        0.87090       -0.21259
H          2.15970       -0.10216       -0.05056
H          1.77244       -2.57174       -0.54646
H          1.77244       -2.27780        1.21882
H          0.47492       -3.21547        0.46784
