23

C          1.01174       -0.08371       -0.16834
C          0.52543       -1.10245        0.85550
C          1.08802       -0.93544        2.29322
C          0.62613        0.41134        2.88934
C          0.49688       -2.06015        3.16963
C          2.63936       -0.97694        2.34826
C          3.28853       -2.23515        1.78426
H          0.73240        0.93572        0.11179
H          0.55563       -0.29219       -1.14200
H          2.09636       -0.12584       -0.29927
H         -0.57088       -1.04810        0.89038
H          0.75955       -2.10606        0.47928
H         -0.46339        0.51570        2.83689
H          0.91624        0.49519        3.94317
H          1.07075        1.26210        2.36268
H          0.72006       -3.05174        2.76246
H          0.89428       -2.01854        4.18995
H         -0.59406       -1.97511        3.23569
H          3.05316       -0.10997        1.81844
H          2.96463       -0.86869        3.39159
H          3.05498       -2.37249        0.72506
H          4.37759       -2.16015        1.87280
H          2.97716       -3.13000        2.33017
