34

C         -3.57734        1.29315       -0.04633
C         -2.84658        2.47170       -0.04097
C         -1.45007        2.43312       -0.02881
C         -0.71883        3.62608       -0.02428
C          0.67348        3.60564       -0.00441
C          1.36424        2.39085        0.01488
C          2.76264        2.37007        0.04545
C          3.45217        1.15980        0.07102
C          2.75739       -0.05437        0.06017
C          3.45027       -1.26787        0.08440
C          2.75866       -2.47645        0.06367
C          1.36030       -2.49779        0.01973
C          0.68247       -3.71910       -0.00998
C         -0.70325       -3.74737       -0.05419
C         -1.42285       -2.55201       -0.06226
C         -0.78978       -1.28426       -0.03049
C         -1.50161       -0.03578       -0.03270
C         -2.91531        0.06494       -0.04467
C         -0.77328        1.18297       -0.01948
C          0.64163        1.17168        0.00531
C          1.34068       -0.05498        0.02365
C          0.62956       -1.27844        0.00441
H         -4.66369        1.32503       -0.05154
H         -3.37715        3.42099       -0.04365
H         -1.22781        4.58746       -0.03512
H          1.21262        4.55026       -0.00101
H          3.33037        3.29785        0.05243
H          4.53942        1.17560        0.09794
H          4.53725       -1.28528        0.11784
H          3.32626       -3.40433        0.08111
H          1.22896       -4.65929       -0.00190
H         -1.22875       -4.69832       -0.08216
H         -2.50504       -2.63632       -0.09824
H         -3.53961       -0.82378       -0.04818
