22

Cl        -2.09356       -0.12915       -0.36392
C         -0.37844       -0.02332       -0.14893
C          0.33530       -1.22569       -0.08318
C          1.72060       -1.21077        0.06772
C          2.39380        0.00295        0.16010
C          1.68198        1.20473        0.10750
C          0.28272        1.21756       -0.05446
C         -0.43031        2.51203       -0.10680
C         -1.23302        2.88301        0.98635
C         -1.93966        4.08861        0.99466
Cl        -2.91235        4.41811        2.38738
C         -1.84606        4.97071       -0.08867
Cl        -2.72081        6.47362       -0.05943
C         -1.04122        4.62771       -1.19045
Cl        -0.90017        5.72326       -2.53881
C         -0.34381        3.39981       -1.20256
Cl         0.62091        2.95478       -2.58494
H         -0.18417       -2.17792       -0.15555
H          2.27393       -2.14629        0.10849
H          3.47601        0.01803        0.26945
H          2.23451        2.14003        0.18199
H         -1.31726        2.21194        1.84189
