18

O          1.16635        0.28364       -0.62020
C          2.17853        0.05683        0.03205
C          2.93574       -1.21545       -0.08163
C          3.99983       -1.40698        0.71677
C          4.83530       -2.65445        0.66562
C          4.58031       -3.49918       -0.58455
C          3.08820       -3.60882       -0.88471
C          2.45287       -2.22846       -1.08063
H          2.58258        0.79647        0.74330
H          4.30063       -0.65752        1.44496
H          4.62285       -3.24784        1.56307
H          5.89657       -2.38393        0.70323
H          5.01161       -4.49742       -0.44896
H          5.09100       -3.04596       -1.44389
H          2.92922       -4.21724       -1.78231
H          2.58912       -4.12781       -0.05638
H          2.68749       -1.86259       -2.08804
H          1.36354       -2.33761       -1.02171
