18

O          1.04499        0.21218        0.48448
C          2.20489       -0.02037        0.19767
O          2.78615        0.35726       -0.95774
C          3.09567       -0.79308        1.08645
C          2.77446       -2.12181        1.39859
Cl         1.41430       -2.88537        0.62056
C          3.57806       -2.84865        2.30652
Cl         3.16774       -4.51581        2.61685
C          4.70331       -2.24184        2.91645
C          5.50579       -3.02827        3.90239
O          5.09414       -3.89698        4.64791
O          6.81154       -2.72509        3.90668
C          5.00427       -0.89371        2.60439
Cl         6.31077       -0.03439        3.37870
C          4.20442       -0.17872        1.68268
Cl         4.57996        1.47571        1.28001
H          3.75142        0.23596       -1.03180
H          7.18218       -3.25399        4.64788
