45

C          1.08535        0.13187        0.42525
C          0.86596        1.08530       -0.73960
C          1.29802        0.50232       -2.08800
C          0.55914       -0.77191       -2.51288
C         -0.96017       -0.62170       -2.64924
C         -1.41157        0.36852       -3.72904
C         -0.99745       -0.00836       -5.15666
C         -1.56324       -1.34338       -5.65647
C         -3.09341       -1.39798       -5.74302
C         -3.71551       -0.39424       -6.72111
C         -3.28726       -0.57422       -8.18206
C         -3.69009       -1.91359       -8.80917
C         -5.20096       -2.17178       -8.86843
C         -5.99076       -1.14021       -9.66851
O         -5.57738       -1.12323      -11.02697
H          0.45653       -0.75929        0.34042
H          0.83251        0.62508        1.36898
H          2.13133       -0.18646        0.47802
H         -0.18594        1.38907       -0.77175
H          1.44379        1.99897       -0.55591
H          1.17836        1.27240       -2.85899
H          2.37212        0.28174       -2.04927
H          0.98316       -1.12173       -3.46118
H          0.76781       -1.57072       -1.79189
H         -1.39214       -1.60853       -2.85071
H         -1.38741       -0.31228       -1.68873
H         -2.50184        0.46869       -3.67777
H         -1.01807        1.36578       -3.50135
H         -1.30163        0.79778       -5.83394
H          0.09578       -0.04397       -5.22455
H         -1.13058       -1.56127       -6.63940
H         -1.21985       -2.15608       -5.00647
H         -3.39255       -2.41506       -6.02089
H         -3.52451       -1.23156       -4.74916
H         -4.80683       -0.46185       -6.64641
H         -3.46722        0.62610       -6.40724
H         -3.70547        0.24797       -8.77372
H         -2.20006       -0.46292       -8.26436
H         -3.27406       -1.96267       -9.82250
H         -3.21664       -2.73564       -8.25970
H         -5.34877       -3.15674       -9.32848
H         -5.61099       -2.23411       -7.85451
H         -7.05420       -1.39888       -9.65165
H         -5.89434       -0.13213       -9.25451
H         -4.67027       -0.77331      -11.05699
