29

C          1.17162        0.16452       -0.02717
C          0.57073        0.35168       -1.41390
C          0.93177       -0.77167       -2.39496
C          0.47568       -2.17027       -2.03730
C         -0.72603       -2.41596       -1.33371
C         -1.12303       -3.71680       -1.00494
C         -0.31713       -4.75452       -1.41187
C          0.83161       -4.53565       -2.13244
C          1.24997       -3.26413       -2.46526
O          1.46978       -5.69380       -2.45295
C          0.62206       -6.65865       -1.79931
C          0.16639       -7.72725       -2.80355
C          0.55109       -9.15406       -2.50698
O         -0.49612       -7.46686       -3.81217
O         -0.53785       -6.07492       -1.17309
H          0.79658       -0.73972        0.46080
H          0.91132        1.01510        0.61103
H          2.26286        0.09966       -0.07765
H         -0.51615        0.46151       -1.33209
H          0.94303        1.29838       -1.82471
H          0.50996       -0.52708       -3.37796
H          2.02355       -0.77336       -2.51338
H         -1.36490       -1.59236       -1.02432
H         -2.03571       -3.90112       -0.45010
H          2.15991       -3.12404       -3.03987
H          1.21851       -7.13055       -1.00937
H         -0.35456       -9.74576       -2.35173
H          1.12307       -9.55210       -3.34906
H          1.16907       -9.22142       -1.60869
