68

O          0.39877        0.04484       -0.87422
C          1.51200        0.05062       -0.36322
C          2.21732        1.33003       -0.10377
C          1.65896        2.53935       -0.53117
C          2.34638        3.74019       -0.32632
C          3.59050        3.74109        0.30462
C          4.14509        2.54156        0.74310
C          3.45311        1.34048        0.54074
C          4.05475        0.08261        0.99773
O          5.10592        0.08869        1.62950
C          3.40262       -1.18772        0.63866
C          2.18776       -1.22349       -0.03146
C          1.65358       -2.44828       -0.44561
C          2.35200       -3.65631       -0.23564
C          3.59625       -3.64562        0.43112
C          4.06462       -2.39784        0.86959
N          5.28597       -2.58742        1.47289
C          5.75476       -3.82676        1.15078
C          7.05383       -4.30626        1.13641
C          8.16347       -3.41228        1.46620
O          8.05926       -2.56997        2.34604
C          9.32993       -3.49464        0.58624
C         10.10817       -2.34936        0.39889
C         11.05949       -2.33827       -0.61401
C         11.23934       -3.47292       -1.41136
C         10.49283       -4.63822       -1.18067
C          9.52848       -4.65293       -0.17167
C          8.63477       -5.83484        0.03649
O          8.94789       -6.95552       -0.33774
C          7.28923       -5.55501        0.57536
C          6.18618       -6.40633        0.46141
N          6.07956       -7.77190        0.33640
C          4.76442       -8.14978        0.56973
C          3.95809       -7.00747        0.42926
C          2.55793       -7.17411        0.48374
C          2.00767       -8.42886        0.77378
C          2.84275       -9.49165        1.10614
C          2.25903      -10.68734        1.74619
O          1.07687      -10.96949        1.60449
C          3.12731      -11.46013        2.65626
C          2.55346      -12.24276        3.66381
C          3.37430      -12.87543        4.59813
C          4.76237      -12.74714        4.51111
C          5.33654      -11.98724        3.48832
C          4.51423      -11.33309        2.56544
C          5.10423      -10.42775        1.55345
O          6.29433      -10.47105        1.27013
C          4.22986       -9.37711        0.99824
C          4.87624       -5.93872        0.47841
C          4.66694       -4.53703        0.68598
H          0.69331        2.55127       -1.03276
H          1.91232        4.67823       -0.66509
H          4.12939        4.67397        0.45521
H          5.11782        2.54290        1.23317
H          0.71360       -2.47098       -0.99646
H          1.96071       -4.56199       -0.68604
H          5.85005       -1.83396        1.86188
H          9.92915       -1.45712        0.99702
H         11.63581       -1.43465       -0.80127
H         11.95662       -3.44025       -2.22914
H         10.63204       -5.50518       -1.82231
H          6.86530       -8.41686        0.34524
H          1.88295       -6.33154        0.40719
H          0.92718       -8.53030        0.86581
H          1.47133      -12.32804        3.74604
H          2.93036      -13.45598        5.40434
H          5.39779      -13.22858        5.25178
H          6.41802      -11.87626        3.43865
