33

C          0.53119        0.06358       -0.18736
C          0.75773        1.30783       -1.02847
N          1.36216        0.97772       -2.32108
C          0.39833        0.66009       -3.39187
C          0.30144        1.76833       -4.41143
C          0.68502        1.56656       -5.74219
C          0.58092        2.60780       -6.66066
C          0.09135        3.82006       -6.20968
Cl        -0.06561        5.15620       -7.27324
N         -0.29594        4.06217       -4.94140
C         -0.17764        3.03093       -4.07447
C          2.74157        0.84844       -2.57145
C          3.75800        1.17212       -1.48043
N          4.49639       -0.07422       -1.11803
O          5.71993       -0.07893       -1.31044
O          3.85667       -0.98839       -0.58087
N          3.09863        0.50449       -3.77163
C          4.48125        0.41892       -4.20297
H         -0.08297       -0.67011       -0.71961
H          0.01677        0.32547        0.74268
H          1.47325       -0.41913        0.07820
H         -0.21106        1.79867       -1.18250
H          1.35461        2.04285       -0.48154
H          0.66981       -0.29001       -3.86989
H         -0.60563        0.48780       -2.98156
H          1.08508        0.60588       -6.05997
H          0.88118        2.47179       -7.69284
H         -0.49120        3.26371       -3.06124
H          4.47757        1.91694       -1.83039
H          3.31873        1.53227       -0.55174
H          5.10080        1.23766       -3.82765
H          4.91874       -0.54395       -3.92537
H          4.51108        0.48399       -5.29561
