17

C          1.14738       -0.12007       -0.04690
O          0.57048       -1.34099       -0.48985
C          0.91032       -1.59114       -1.80269
N          2.20405       -1.41254       -2.16293
C          2.56042       -1.69615       -3.43140
C          1.57663       -2.13999       -4.28265
N          1.52999       -2.50780       -5.59753
C          0.23618       -2.85266       -5.88133
N         -0.54091       -2.73776       -4.82754
C          0.28038       -2.29697       -3.82420
N         -0.09491       -2.03976       -2.56127
H          0.72755        0.10967        0.93733
H          0.89292        0.70781       -0.71901
H          2.23307       -0.20599        0.06881
H          3.59695       -1.55566       -3.70775
H          2.30191       -2.52027       -6.24966
H         -0.07725       -3.17725       -6.86511
