19

C          2.47779       -0.01135       -0.01219
C          0.97798        0.01121       -0.01587
C          0.26154       -1.19080       -0.01745
C         -1.13488       -1.18277       -0.01839
C         -1.84002        0.02814       -0.01757
C         -3.34488        0.02601       -0.02727
O         -3.83924       -0.48616       -1.25809
C         -1.12205        1.22975       -0.02317
C          0.27543        1.22109       -0.02065
H          2.84476       -0.54483        0.87061
H          2.84954       -0.50815       -0.91404
H          2.89504        1.00072        0.01096
H          0.78850       -2.14258       -0.01694
H         -1.67476       -2.12791       -0.02092
H         -3.73128       -0.58747        0.79320
H         -3.74233        1.03821        0.10026
H         -3.12508       -0.40617       -1.91383
H         -1.64416        2.18425       -0.02781
H          0.81081        2.16794       -0.02139
