23

C          1.34966       -0.26669        0.18853
O          0.85047       -1.60299        0.10459
C          0.99886       -2.15425       -1.12318
O          1.60762       -1.68635       -2.07079
C          0.41867       -3.50958       -1.13630
C          1.24291       -4.53741       -1.62703
C          0.76578       -5.85388       -1.66014
N          1.62851       -6.93023       -2.16464
O          2.81087       -6.65268       -2.40557
O          1.12112       -8.05032       -2.31296
C         -0.52597       -6.15365       -1.21082
C         -1.34357       -5.12653       -0.73009
C         -0.88361       -3.79787       -0.70122
C         -1.84286       -2.78015       -0.22303
O         -2.71345       -2.97333        0.60526
O         -1.74594       -1.62225       -0.89012
H          1.02934        0.15620        1.14450
H          0.93822        0.35507       -0.61405
H          2.44317       -0.26846        0.15327
H          2.24839       -4.29723       -1.97346
H         -0.91145       -7.17236       -1.23208
H         -2.35255       -5.36266       -0.39100
H         -2.44183       -1.05337       -0.49646
