40

C          0.80647       -0.14977       -0.23047
C          0.30471        0.43410        0.87203
O         -1.05322        0.57957        1.10748
C         -2.01286        0.14356        0.14060
C         -2.14358        1.11476       -1.02438
C          1.14900        1.04101        2.03213
C          2.40351        0.18075        2.49047
C          2.84477        0.53031        3.93954
C          2.04801       -1.32846        2.55981
C          3.62045        0.38066        1.56145
C          3.82646        1.80802        1.08745
O          4.96496        2.23950        0.88979
C          2.61686        2.63206        0.69443
C          1.49525        2.55871        1.74306
C          0.26016        3.33382        1.21508
C          1.93435        3.33485        3.01006
H          0.18746       -0.57352       -1.01158
H          1.86398       -0.23727       -0.42444
H         -1.80730       -0.88005       -0.19140
H         -2.97733        0.10563        0.65919
H         -1.20353        1.23271       -1.57105
H         -2.90479        0.76795       -1.72961
H         -2.42409        2.11022       -0.66610
H          0.46623        1.03675        2.89695
H          1.98359        0.67818        4.59922
H          3.44805       -0.27599        4.37588
H          3.48386        1.41211        3.99017
H          1.79882       -1.75766        1.58708
H          2.89323       -1.91553        2.93955
H          1.19904       -1.49749        3.23255
H          3.56475       -0.25140        0.67182
H          4.53643        0.07177        2.08235
H          2.27856        2.28315       -0.28701
H          2.94021        3.67270        0.56511
H         -0.57673        3.25889        1.91964
H          0.48426        4.39951        1.08527
H         -0.07418        2.97354        0.23842
H          2.98847        3.19062        3.25249
H          1.82823        4.41804        2.87237
H          1.32651        3.06114        3.87862
