26

C          1.00628        0.05542       -0.07629
C          0.55046        1.44143        0.23258
C          1.30008        2.54708        0.12413
C          0.56611        3.77084        0.55428
C         -0.89818        3.29629        0.55295
C         -1.77762        4.07538        1.53750
C         -1.87365        5.49741        1.17599
N         -1.93991        6.62212        0.89695
C         -0.83193        1.75035        0.77888
C         -0.91191        1.33550        2.25738
C         -1.94708        1.04984       -0.01019
H          0.49800       -0.32594       -0.96693
H          0.79839       -0.61927        0.75937
H          2.08475        0.02184       -0.26396
H          2.32979        2.56559       -0.20868
H          0.71243        4.58984       -0.15725
H          0.91039        4.09097        1.54307
H         -1.29022        3.47920       -0.46120
H         -2.78577        3.64541        1.55046
H         -1.38107        3.99822        2.55630
H         -1.89298        1.56912        2.68527
H         -0.76118        0.25649        2.37772
H         -0.15135        1.84133        2.86321
H         -1.87738        1.26276       -1.08324
H         -1.89965       -0.03850        0.11117
H         -2.93514        1.37721        0.33157
