29

N          1.21204       -0.39503       -0.20718
C          0.39451       -1.25455       -0.88792
C         -0.65089       -0.70349       -1.77089
C         -1.38148       -1.59887       -2.43017
N         -1.17436       -2.94999       -2.26251
C         -2.08067       -3.89378       -2.90042
O         -1.34233       -4.85998       -3.68000
C         -2.15173       -6.05192       -3.67588
C         -1.33233       -7.28054       -4.05681
O         -2.14606       -8.44885       -4.03775
C         -2.79556       -6.12702       -2.28974
O         -1.95827       -6.80332       -1.34299
C         -3.03034       -4.66028       -1.96543
F         -2.85202       -4.39095       -0.65533
F         -4.31647       -4.32155       -2.25613
C         -0.22950       -3.43426       -1.35537
O         -0.14297       -4.64211       -1.12273
N          0.57887       -2.52599       -0.71025
H          0.80792        0.48183        0.09856
H          1.74297       -0.86291        0.52135
H         -0.78307        0.36431       -1.86638
H         -2.17057       -1.28268       -3.10579
H         -2.68814       -3.35153       -3.63618
H         -2.94142       -5.90342       -4.42519
H         -0.92695       -7.16104       -5.06704
H         -0.47198       -7.42638       -3.39429
H         -2.23641       -8.70511       -3.09930
H         -3.73780       -6.68268       -2.33917
H         -1.23954       -6.18424       -1.07435
