17

O          1.20173        0.62887        0.12811
C          2.24336        0.04623       -0.14520
C          3.02001        0.37344       -1.35828
C          2.61957        1.42715       -2.18260
C          3.35752        1.73716       -3.32675
C          4.49528        0.99158       -3.65565
O          5.18160        1.33572       -4.78239
C          4.89482       -0.07251       -2.83224
N          6.07462       -0.90475       -3.13227
O          6.32655       -1.82430       -2.33645
O          6.75283       -0.66685       -4.13807
C          4.15349       -0.37886       -1.67361
H          2.64599       -0.74967        0.50368
H          1.73361        2.01083       -1.93505
H          3.02715        2.56441       -3.95063
H          4.77062        2.09917       -5.22117
H          4.45106       -1.19976       -1.02363
