28

C          1.10399        0.01545       -0.01912
C          0.46684       -1.35369       -0.01163
C          0.39424       -2.05227       -1.38638
C          0.05155       -3.50992       -1.01220
C         -0.02175       -3.47070        0.53680
C         -1.36491       -2.77605        0.88190
C         -0.99567       -1.36760        0.45427
O         -1.75744       -0.41289        0.46733
C          1.05807       -2.42559        0.95145
C          0.99977       -2.01404        2.44568
C          2.53649       -2.83589        0.71930
O          2.86605       -3.30943       -0.56941
H          0.98388        0.51750        0.94679
H          0.63815        0.65791       -0.77455
H          2.17340       -0.04164       -0.24349
H          1.33769       -1.99167       -1.93726
H         -0.38537       -1.62437       -2.02792
H         -0.89689       -3.82286       -1.46342
H          0.80968       -4.20819       -1.37440
H          0.07756       -4.45597        0.99831
H         -2.20568       -3.15845        0.29858
H         -1.59041       -2.80949        1.94976
H          1.18611       -2.88258        3.08767
H          1.76633       -1.26261        2.66964
H          0.04895       -1.57660        2.76038
H          3.18815       -1.97538        0.90825
H          2.82680       -3.61170        1.43869
H          2.83018       -4.28144       -0.54693
