20

O          1.54116        1.06992       -0.59874
C          2.26259        0.21047       -0.12896
O          2.58009       -0.94949       -0.73477
C          3.02149        0.41768        1.11562
C          4.09331        1.31663        1.06635
C          4.80988        1.58642        2.23588
N          5.95686        2.50176        2.18642
O          6.39344        2.80929        1.07036
O          6.42146        2.89137        3.26487
C          4.44916        0.98793        3.45134
C          3.36248        0.09479        3.48384
N          2.99713       -0.51412        4.76766
O          3.76954       -0.36198        5.72125
O          1.93380       -1.15102        4.81051
C          2.64763       -0.20852        2.31224
O          1.60951       -1.09773        2.25542
H          3.13048       -1.55411       -0.20293
H          4.34625        1.79738        0.12091
H          5.00831        1.21431        4.35994
H          1.30224       -1.34393        3.15652
