31

F          0.97113        0.05654       -0.44143
C          2.25371        0.01389        0.01012
F          3.02774        0.35767       -1.06166
F          2.37873        1.04175        0.89858
C          2.69249       -1.31343        0.61754
N          1.92531       -2.27172        1.06035
O          0.57076       -1.99336        0.88503
C         -0.20954       -3.08773        1.38884
C         -0.08276       -4.34938        0.52251
O          1.08947       -5.11066        0.87453
C          0.65760       -6.46652        0.84950
C         -0.77187       -6.37525        1.30310
O         -1.24868       -5.18149        0.68427
C          4.16297       -1.53787        0.71987
C          5.03825       -0.51692        1.10789
C          6.41037       -0.77435        1.19308
C          6.90344       -2.04320        0.88741
Cl         8.59288       -2.35000        0.98649
C          6.03607       -3.06508        0.50677
C          4.66423       -2.81587        0.43118
H          0.07335       -3.28649        2.42956
H         -1.25098       -2.74826        1.39442
H         -0.00349       -4.08052       -0.53683
H          1.28011       -7.08479        1.50113
H          0.73501       -6.83120       -0.18027
H         -0.84237       -6.24425        2.38816
H         -1.37657       -7.23461        1.00292
H          4.67785        0.47536        1.36814
H          7.08899        0.01702        1.50267
H          6.41725       -4.05547        0.27162
H          3.98976       -3.62124        0.14208
