30

C          1.01571        0.97821       -0.69129
C         -0.32383        1.26083       -0.00910
C         -1.28355        0.06478       -0.11889
N         -2.61424        0.21074        0.50544
C         -3.40612        1.36417        0.03802
C         -3.24572        2.65126        0.87107
O         -3.44723        2.41358        2.26824
C         -2.53990        1.41089        2.73949
C         -2.72303        0.09629        1.96907
C         -0.56341       -1.22906        0.31476
C          0.77256       -1.39771       -0.40510
N          1.63446       -0.23956       -0.17741
H          0.88189        0.90546       -1.77775
H          1.69040        1.82241       -0.51097
H         -0.75700        2.14291       -0.49159
H         -0.13739        1.51105        1.03939
H         -1.48565       -0.06510       -1.19286
H         -4.46029        1.06316        0.10236
H         -3.22079        1.57214       -1.02219
H         -2.26582        3.11675        0.73274
H         -3.99514        3.38411        0.55459
H         -2.76027        1.24542        3.79923
H         -1.51489        1.78778        2.67934
H         -3.74395       -0.25666        2.17074
H         -2.07431       -0.67695        2.38651
H         -0.35907       -1.22271        1.39138
H         -1.19748       -2.10004        0.10850
H          1.27477       -2.29205       -0.02027
H          0.61650       -1.55461       -1.47919
H          2.53108       -0.38783       -0.64206
