23

O          1.10663        0.04440        0.04400
C          0.84182       -1.22427       -0.52575
C         -0.59244       -1.53886       -0.25919
C         -0.77446       -2.62020        0.50615
C          0.52464       -3.23261        0.91982
C          1.60316       -2.31505        0.23654
C          2.41290       -3.34933       -0.60812
Cl         3.97604       -2.73471       -1.12280
C          1.52167       -3.91078       -1.69987
Cl         1.66789       -3.54531       -3.34687
C          0.60914       -4.69043       -1.10840
Cl        -0.67526       -5.52189       -1.83270
C          0.88598       -4.65818        0.38310
Cl         0.19934       -5.96438        1.33353
C          2.44616       -4.59054        0.34591
Cl         3.22915       -4.30066        1.94058
Cl         3.25291       -6.05292       -0.34556
H          1.97027        0.34468       -0.28839
H          1.05582       -1.18240       -1.59616
H         -1.39831       -0.92507       -0.64250
H         -1.74277       -2.99162        0.82043
H          0.61846       -3.17382        2.01138
H          2.24358       -1.86279        1.00609
