13

C          0.95183        0.15148        0.05389
C          0.56814       -0.48181       -1.28234
C          1.05204       -1.92305       -1.50652
Cl         0.53053       -3.01247       -0.19493
Cl         0.45879       -2.52579       -3.08373
N          2.58087       -2.01639       -1.61293
O          3.21160       -0.96760       -1.82602
O          3.11610       -3.13426       -1.52095
H          0.51066       -0.38506        0.89876
H          0.57909        1.18070        0.09307
H          2.03512        0.18736        0.19618
H         -0.52812       -0.45837       -1.35073
H          0.92991        0.17151       -2.08752
