12

F         -2.58161        1.22288        0.01961
C         -1.56124        0.35524        0.01256
C         -1.82739       -1.01104        0.00661
C         -0.76904       -1.91897       -0.00121
C          0.54650       -1.44946       -0.00319
C          0.79548       -0.07510        0.00318
Cl         2.41840        0.49674        0.00099
C         -0.25729        0.83509        0.01121
H         -2.85647       -1.35730        0.00806
H         -0.96688       -2.98803       -0.00582
H          1.37165       -2.15743       -0.00969
H         -0.07911        1.90488        0.01631
