12

O          1.32460       -0.16805        0.54655
C          2.46768       -0.11838        0.11698
C          3.22964        1.16031       -0.07926
C          4.48070        0.74489       -0.83403
C          4.50318       -0.75266       -0.72827
O          5.44822       -1.44350       -1.07886
N          3.29550       -1.14948       -0.22714
Cl         2.86546       -2.76353       -0.05169
H          2.63803        1.88313       -0.64699
H          3.48019        1.57762        0.90125
H          5.38085        1.18011       -0.39231
H          4.41580        1.02463       -1.89037
