50

C          0.56464        0.06548        0.14129
C          0.56318        1.34891        0.96258
N          1.10482        2.53844        0.28135
C          0.14020        3.41487       -0.40757
C         -0.08804        4.72906        0.32797
C          2.45713        2.70634        0.01660
C          3.10323        3.93088        0.21197
C          4.44623        4.14382       -0.15911
C          5.22946        3.12865       -0.72308
N          6.57305        3.47101       -1.07368
N          7.39586        2.62608       -0.66481
C          8.74084        3.03020       -0.82903
C          9.47917        2.67578       -1.98460
C          8.91069        2.20573       -3.21214
N          8.68487        1.82577       -4.28759
C         10.88591        2.77176       -2.01463
C         11.58260        3.27157       -0.92116
N         13.05015        3.30089       -0.94980
O         13.61437        2.70948       -1.87945
O         13.62677        3.89949       -0.03436
C         10.88388        3.72989        0.19344
C          9.47356        3.60819        0.23677
N          8.80922        4.12358        1.44669
O          9.45769        4.92521        2.13574
O          7.67401        3.73343        1.73218
C          4.60930        1.86538       -0.84544
N          5.27271        0.68933       -1.25292
C          6.07207        0.63693       -2.36697
C          7.00826       -0.54166       -2.33074
O          6.04925        1.46062       -3.27084
C          3.25850        1.68264       -0.48513
H          0.39936        0.24621       -0.92519
H         -0.21158       -0.61909        0.49936
H          1.50760       -0.47732        0.26668
H         -0.47840        1.55216        1.24442
H          1.09480        1.18781        1.90705
H          0.44990        3.60511       -1.44251
H         -0.82902        2.90432       -0.47978
H          0.68500        5.46165        0.07829
H         -1.04066        5.17565        0.02535
H         -0.09824        4.59457        1.41416
H          2.58092        4.75006        0.69543
H          4.88881        5.11973        0.02752
H         11.42214        2.43477       -2.90582
H         11.43001        4.15395        1.03682
H          4.86032       -0.19325       -0.98049
H          7.53517       -0.63435       -3.28233
H          7.74401       -0.38245       -1.53420
H          6.45934       -1.46551       -2.13558
H          2.81822        0.72281       -0.71319
