16

O          1.27382        0.27712       -0.82031
C          2.37515        0.09610       -0.33533
N          3.18669        1.07425        0.19832
C          4.38402        0.51850        0.73857
N          4.43593        0.63600        2.15775
C          4.23329       -0.58392        2.76711
O          4.14066       -0.76800        3.96645
N          4.15041       -1.56020        1.79749
C          4.23816       -1.00113        0.48826
N          3.01253       -1.12166       -0.22857
H          2.86889        2.02754        0.28668
H          5.26296        0.97242        0.27364
H          4.42341        1.49161        2.69203
H          3.92580       -2.51486        2.03360
H          5.06505       -1.45064       -0.06756
H          2.53910       -1.97851       -0.47217
