17

O          1.03382        0.02203        0.12538
C          2.24977        0.07913        0.11631
O          2.94980        1.17976       -0.22497
C          3.10859       -1.08413        0.43177
C          4.26468       -0.94101        1.21211
C          5.04795       -2.05832        1.50957
C          4.67522       -3.31932        1.03891
C          3.50682       -3.45905        0.27488
N          3.11323       -4.78731       -0.21211
O          3.78859       -5.75796        0.15773
O          2.13713       -4.85595       -0.97091
C          2.71476       -2.34528       -0.02879
H          3.90592        1.04138       -0.35835
H          4.54587        0.02759        1.62117
H          5.94244       -1.95076        2.12078
H          5.29555       -4.18047        1.28344
H          1.79901       -2.44302       -0.61108
