22

Cl        -1.63648       -1.90692       -0.07364
C         -0.52386       -0.58596       -0.04570
C          0.83205       -0.88257        0.10437
C          1.77764        0.14793        0.13644
Cl         3.43564       -0.30162        0.34603
C          1.38650        1.49488        0.01067
C          2.35093        2.61449        0.03105
C          3.15654        2.83116       -1.10098
C          4.08252        3.87339       -1.13562
C          4.21532        4.73077       -0.04269
Cl         5.38289        6.00065       -0.17831
C          3.42420        4.54740        1.10040
Cl         3.58784        5.62906        2.45197
C          2.49738        3.48522        1.13761
Cl         1.52398        3.21968        2.55947
C          0.01433        1.77164       -0.14666
C         -0.93538        0.74318       -0.16839
Cl        -2.59443        1.18755       -0.34985
H          1.15329       -1.91716        0.20088
H          3.07294        2.17638       -1.96834
H          4.69977        4.01033       -2.02150
H         -0.31985        2.80415       -0.24281
