22

C          0.41894        0.61645        0.19285
C         -0.02968        0.83232       -1.24582
C          0.89220        0.23347       -2.31068
O          0.79369       -1.17187       -2.50395
C          1.35984       -2.02844       -1.52362
C          2.86711       -2.31881       -1.64311
C          3.78154       -1.10403       -1.61433
O          3.25194       -3.17735       -0.55934
H          0.03650       -0.32886        0.58814
H          0.01924        1.40671        0.83632
H          1.50921        0.62698        0.28648
H         -1.04976        0.45275       -1.36656
H         -0.06042        1.91594       -1.41563
H          0.59224        0.67070       -3.27093
H          1.92233        0.55217       -2.15396
H          1.10855       -1.71577       -0.51155
H          0.84552       -2.99194       -1.63721
H          3.05478       -2.86585       -2.57265
H          3.53613       -0.44454       -0.77515
H          4.82444       -1.40828       -1.47387
H          3.72262       -0.53822       -2.54816
H          3.15566       -2.67565        0.26623
