16

C          2.50844        0.69888        0.02493
C          2.50974       -0.69462        0.02120
C          1.30220       -1.39492        0.00272
C          0.07810       -0.70163       -0.01215
C         -1.15841       -1.34114       -0.03006
N         -2.33731       -0.68074       -0.04463
N         -2.33856        0.67629       -0.04218
C         -1.16089        1.33882       -0.02480
C          0.07680        0.70152       -0.00901
C          1.29960        1.39701        0.00971
H          3.44995        1.24282        0.03972
H          3.45227       -1.23687        0.03279
H          1.32120       -2.48267        0.00003
H         -1.24682       -2.42200       -0.03318
H         -1.25129        2.41951       -0.02406
H          1.31657        2.48479        0.01272
