17

N          2.34857        0.00957       -0.18391
C          0.95969        0.02420       -0.00674
C          0.23622       -1.17167       -0.03997
C         -1.15961       -1.16655        0.00873
C         -1.84872        0.04392        0.04768
C         -1.14042        1.25011        0.01913
C         -1.91130        2.51590        0.02704
O         -3.12482        2.61151        0.03987
O         -1.12749        3.60880        0.02761
C          0.26062        1.23436       -0.03031
H          2.79701       -0.83850        0.14879
H          2.81568        0.84685        0.15115
H          0.75760       -2.12356       -0.10441
H         -1.70742       -2.10537        0.00085
H         -2.93639        0.04461        0.07991
H         -1.76550        4.35275        0.03226
H          0.81142        2.16945       -0.08716
