28

O          1.40041        0.63191        0.68044
C          2.50959        0.19907        0.34903
C          3.09084        0.60661       -0.96530
C          4.17854       -0.04714       -1.55463
C          4.71555        0.42540       -2.75673
C          4.16843        1.54653       -3.37859
C          3.07418        2.19226       -2.80875
C          2.53443        1.72199       -1.60993
C          3.34182       -0.63532        1.32914
O          3.21735       -0.03679        2.62739
C          2.89556       -2.08126        1.41507
C          1.72429       -2.44184        2.10338
C          1.33189       -3.77832        2.20228
C          2.09499       -4.77482        1.60082
C          3.25076       -4.43538        0.90179
C          3.65079       -3.09920        0.81191
H          4.63028       -0.92618       -1.10961
H          5.56601       -0.08038       -3.20878
H          4.59374        1.91619       -4.30875
H          2.64335        3.06587       -3.29220
H          1.68459        2.24328       -1.17188
H          4.40644       -0.57367        1.08938
H          2.31741        0.34489        2.65278
H          1.11229       -1.68117        2.58417
H          0.43302       -4.03915        2.75512
H          1.79143       -5.81521        1.68180
H          3.84763       -5.21460        0.43463
H          4.56989       -2.86919        0.27977
