55

C          1.04393       -0.03211       -0.07667
C          0.35041        1.01149       -0.54376
C         -1.09126        1.07091       -0.53434
C         -1.76347        2.13107       -1.00661
C         -3.26022        2.26339       -1.02393
C         -3.74194        3.32192       -0.09387
C         -4.51984        3.27735        1.00071
C         -5.11025        2.07144        1.64977
C         -4.81036        4.63508        1.58544
O         -6.22431        4.93144        1.57639
C         -6.84444        5.13059        0.38536
O         -6.30468        5.07446       -0.71051
C         -8.28643        5.45025        0.46025
C         -9.24381        5.39815        1.60864
C         -8.96576        5.00752        2.99714
C         -9.84851        4.55771        3.92021
C         -9.42284        4.18517        5.31233
C        -11.31046        4.43154        3.61600
O        -11.90859        5.05818        2.75545
O        -11.87660        3.50376        4.43225
C        -13.26176        3.26761        4.16642
C         -8.80101        6.75290        1.06774
C         -7.81676        7.64430        1.78958
C         -9.82348        7.52962        0.26886
C         -3.93979        5.61941        0.80806
C         -3.41521        4.75420       -0.30084
O         -2.73490        5.16625       -1.23029
H          0.56058       -0.90979        0.33898
H          2.12917       -0.02449       -0.10460
H          0.89044        1.86498       -0.95041
H         -1.63156        0.22229       -0.12128
H         -1.21727        2.97450       -1.42911
H         -3.58014        2.50417       -2.04526
H         -3.72632        1.29994       -0.78893
H         -4.74016        1.98006        2.67622
H         -6.20152        2.14791        1.68300
H         -4.85876        1.14622        1.12500
H         -4.50725        4.65580        2.63899
H         -8.75206        5.16545       -0.48518
H        -10.21031        5.02953        1.26812
H         -7.93053        5.08349        3.32160
H        -10.03898        4.70441        6.05468
H         -9.52118        3.10579        5.47039
H         -8.38010        4.45361        5.51103
H        -13.82033        4.20335        4.05693
H        -13.36161        2.65391        3.26584
H        -13.68370        2.71782        5.01201
H         -7.19667        7.11697        2.51824
H         -7.14629        8.11795        1.06322
H         -8.34082        8.44056        2.32893
H         -9.38162        7.88532       -0.66712
H        -10.69890        6.91975        0.02108
H        -10.18133        8.39747        0.83298
H         -3.08545        5.94950        1.40845
H         -4.48084        6.48447        0.41915
