32

S          1.34356        1.62528       -0.40499
C          2.66809        0.60125       -0.23494
S          3.45286       -0.21880       -1.57455
C          2.09057       -0.81791       -2.59837
C          1.45069       -2.08962       -2.10158
C          0.20211       -2.06240       -1.46280
C         -0.41469       -3.24882       -1.05972
C          0.20560       -4.47403       -1.28989
C          1.45078       -4.51546       -1.91456
C          2.07198       -3.33005       -2.31290
S          3.36009        0.40913        1.37953
C          5.12975        0.13489        1.10916
C          5.56452       -1.29818        0.87734
C          4.79870       -2.40952        1.26441
C          5.24506       -3.70968        1.02228
C          6.47964       -3.92302        0.41811
C          7.27185       -2.83557        0.05997
C          6.81953       -1.53368        0.28966
H          1.33848       -0.04366       -2.77599
H          2.51210       -1.02275       -3.59057
H         -0.31225       -1.12001       -1.29083
H         -1.38750       -3.21572       -0.57438
H         -0.28191       -5.39687       -0.98662
H          1.93412       -5.47091       -2.09894
H          3.04143       -3.38229       -2.80594
H          5.47689        0.77969        0.29308
H          5.64547        0.48389        2.01220
H          3.83404       -2.28876        1.75117
H          4.62270       -4.55338        1.30892
H          6.82510       -4.93613        0.23277
H          8.24251       -3.00091       -0.40007
H          7.45715       -0.70001        0.00135
