87

N          1.15209       -0.09979        0.19514
N          2.28973       -0.06037        0.10332
C          3.59426        0.03571       -0.01701
C          4.23924        1.32085       -0.25214
C          5.55611        1.33325       -0.49518
C          6.42235        0.13399       -0.50531
C          5.83828       -1.11346       -0.17182
C          6.59277       -2.29093       -0.05666
C          7.95741       -2.26484       -0.29715
C          8.55772       -1.06971       -0.67982
C          7.80608        0.12493       -0.78597
S          8.77848        1.58372       -1.19092
O          9.11646        1.45780       -2.59555
O          8.11315        2.77093       -0.68709
O         10.14590        1.38088       -0.31374
C         10.96336        2.45181       -0.07562
C         12.02034        2.61675       -0.96187
C         12.90448        3.67308       -0.78333
C         12.80095        4.54463        0.32123
C         13.75404        5.70405        0.26567
O         14.53658        5.81206       -0.67851
C         13.76375        6.81180        1.22802
C         14.21459        6.61222        2.53341
C         14.25137        7.69031        3.41634
C         13.87871        8.96478        2.98181
C         13.47801        9.17053        1.66102
C         13.42678        8.09376        0.77744
C         11.78163        4.32267        1.28192
O         11.84653        5.04502        2.46916
S         10.51457        5.70103        3.13048
O          9.81949        6.39825        2.06311
O          9.83078        4.68675        3.90717
C         10.97904        6.93429        4.34081
C         10.72984        8.26711        3.95323
C         10.73369        9.29825        4.88463
C         10.96940        9.00898        6.21920
C         11.22123        7.68858        6.61720
C         11.24438        6.61520        5.69541
C         11.51776        5.25139        6.21038
C         11.66302        4.94929        7.50918
C         11.59237        6.03147        8.48693
N         11.71107        5.80453        9.77708
N         11.82289        5.57216       10.88890
C         11.41008        7.43766        8.06364
O         11.42234        8.32627        8.89841
C         10.82004        3.29252        1.04649
O          9.63564        3.29210        1.75900
S          9.11612        2.03174        2.65244
O          8.73276        0.94612        1.77222
O         10.08262        1.78627        3.70688
C          7.56288        2.47965        3.45118
C          6.96242        1.40402        4.14319
C          5.83800        1.59719        4.94123
C          5.35645        2.88286        5.13396
C          5.93589        3.94763        4.43671
C          6.96787        3.75369        3.48766
C          7.25215        4.87400        2.57064
C          6.91472        6.14878        2.81761
C          6.16914        6.42429        4.03870
N          6.07475        7.63559        4.53458
N          6.03602        8.70399        4.94062
C          5.48855        5.32394        4.75902
O          4.62456        5.58182        5.57827
C          4.38079       -1.21426        0.06990
O          3.81609       -2.26385        0.32784
H          3.64448        2.22841       -0.23958
H          5.98861        2.30809       -0.67607
H          6.11394       -3.22705        0.22836
H          8.55017       -3.16995       -0.18457
H          9.63098       -1.07073       -0.86650
H         12.13734        1.95662       -1.81992
H         13.68222        3.82052       -1.53526
H         14.54183        5.62907        2.86035
H         14.57735        7.54298        4.44290
H         13.90696        9.80320        3.67471
H         13.21961       10.17018        1.31831
H         13.15081        8.25894       -0.26259
H         10.48482        8.51357        2.92038
H         10.51102       10.31668        4.57491
H         10.93168        9.80966        6.95687
H         11.59969        4.42836        5.50554
H         11.83692        3.93490        7.85551
H          7.37897        0.39941        4.06319
H          5.37279        0.75647        5.45045
H          4.53036        3.05868        5.82102
H          7.75722        4.66230        1.63378
H          7.18409        6.96498        2.15502
