18

C          1.02649        0.03209        0.10369
O          0.65438       -1.30062       -0.21203
C          1.14181       -1.83647       -1.45150
C          0.61215       -1.04637       -2.65415
C          2.67361       -1.90161       -1.47372
C          0.58534       -3.26615       -1.51553
H          0.57838        0.28456        1.06919
H          0.64319        0.73912       -0.63591
H          2.11003        0.13057        0.20403
H          1.05043       -0.04390       -2.70161
H          0.84524       -1.55076       -3.59816
H         -0.47368       -0.91558       -2.58722
H          3.05680       -2.38028       -0.56562
H          3.03764       -2.46033       -2.34276
H          3.11828       -0.90179       -1.51753
H          0.92324       -3.85448       -0.65437
H         -0.51021       -3.25978       -1.47519
H          0.89429       -3.78353       -2.42993
