66

C          0.93645       -0.11111        0.05925
C          1.01621        0.66000        1.37067
C          0.94586        2.17991        1.33355
C          0.40234        2.77957        2.48910
C          0.27866        4.15579        2.59720
C          0.68638        4.95969        1.54293
C          1.24871        4.40956        0.37192
C          1.68751        5.39871       -0.67364
C          1.41316        3.00372        0.26877
N          2.18990        2.36373       -0.74583
C          2.50657        2.79024       -2.05780
C          1.53034        2.67844       -3.05421
C          1.81855        2.98432       -4.39265
C          3.06887        3.47423       -4.78016
N          3.38059        3.78327       -6.11996
C          2.66411        3.74284       -7.33244
C          1.39561        4.33973       -7.50485
C          0.73327        5.20445       -6.46510
C          0.70812        4.17252       -8.72192
C          1.28478        3.48648       -9.78477
C          2.56826        2.97335       -9.65447
C          3.27489        3.10417       -8.44593
C          4.67868        2.53124       -8.39292
C          4.68927        1.02596       -8.18078
C          4.06816        3.53189       -3.78288
C          3.78480        3.23750       -2.43630
C          4.88682        3.33524       -1.44720
O          4.68401        3.52570       -0.25406
C          6.25192        3.08127       -1.92390
C          7.23081        2.61987       -1.04160
C          8.45479        2.18337       -1.54703
C          8.70271        2.22873       -2.92166
C          7.74858        2.76098       -3.79094
C          6.52416        3.19549       -3.28091
C          5.48743        3.74126       -4.16971
O          5.80566        4.28629       -5.22062
H          0.21264        0.32845       -0.63359
H          0.63030       -1.14466        0.25556
H          1.91377       -0.16429       -0.43035
H          1.92161        0.36370        1.91421
H          0.16432        0.30983        1.97040
H          0.07601        2.16204        3.32399
H         -0.13340        4.60000        3.49880
H          0.58347        6.03826        1.64757
H          1.31843        6.40641       -0.44664
H          2.77719        5.46290       -0.71975
H          1.26917        5.14835       -1.65057
H          3.05278        2.08960       -0.26424
H          0.54596        2.28953       -2.79959
H          1.04963        2.79547       -5.13699
H          4.30980        4.20539       -6.23016
H          0.23309        6.05472       -6.94298
H         -0.02203        4.63540       -5.91596
H          1.45499        5.63266       -5.76418
H         -0.28183        4.60525       -8.85222
H          0.74508        3.37526      -10.72108
H          3.02411        2.46564      -10.50187
H          5.19459        2.77156       -9.33187
H          5.28005        3.01143       -7.61585
H          4.20920        0.50438       -9.01543
H          5.72056        0.66473       -8.10950
H          4.16578        0.74887       -7.26031
H          7.02797        2.56286        0.02613
H          9.20737        1.78495       -0.87033
H          9.64221        1.84740       -3.31545
H          7.94568        2.80237       -4.86007
