58

C          0.52426       -1.13259        0.89454
C         -0.16158       -1.22240        2.24913
C          0.14362       -0.07897        3.22077
C         -0.03245        1.36213        2.74458
O         -1.35591        1.76693        2.43028
C         -1.83172        1.49069        1.11688
C         -1.24958        2.33732       -0.02900
O          0.18494        2.25394       -0.15732
C          0.87030        3.40133        0.08688
O          0.35164        4.47972        0.36169
C          2.37203        3.26848       -0.07154
C          3.02225        1.91185        0.19045
C          2.91356        0.87628       -0.93257
C          3.56378        1.24715       -2.26356
C          5.06550        1.09999       -2.40879
O          5.58416        0.91331       -3.50588
O          5.75087        1.25058       -1.24541
C          7.18538        1.12943       -1.33889
C          7.76752       -0.08119       -0.58773
O          7.29171       -1.36793       -0.96930
C          5.96825       -1.71395       -0.59125
C          5.79218       -2.30515        0.80661
C          6.09738       -1.42919        2.02489
C          5.41154       -0.07177        2.04494
H          0.00904       -0.45173        0.21453
H          0.52721       -2.11325        0.40753
H          1.55906       -0.80007        0.99440
H         -1.24289       -1.33219        2.11763
H          0.17662       -2.15053        2.72708
H         -0.46950       -0.23031        4.11661
H          1.19026       -0.18613        3.53716
H          0.27921        2.01020        3.57331
H          0.66088        1.57511        1.94223
H         -1.75369        0.42729        0.90336
H         -2.90881        1.69655        1.14524
H         -1.66154        1.95655       -0.97129
H         -1.59662        3.37056        0.06747
H          2.64656        3.66152       -1.05283
H          2.79373        3.95319        0.67748
H          4.08155        2.08608        0.40679
H          2.60836        1.47532        1.10468
H          3.32744       -0.07026       -0.57142
H          1.85426        0.67474       -1.12372
H          3.14207        0.55597       -3.00662
H          3.28924        2.25701       -2.57594
H          7.53242        1.11685       -2.37655
H          7.59734        2.03782       -0.88315
H          8.84461       -0.09280       -0.79520
H          7.68949        0.04562        0.48946
H          5.27492       -0.89700       -0.73863
H          5.65659       -2.48755       -1.30424
H          4.74554       -2.62917        0.88783
H          6.40530       -3.21029        0.88499
H          5.75918       -1.98065        2.91132
H          7.17869       -1.30699        2.14495
H          4.37673       -0.14441        1.70544
H          5.40860        0.33433        3.06178
H          5.92675        0.66108        1.42131
