35

C          1.01462        0.49343        0.30925
C          0.59030       -0.53934       -0.43004
C         -0.81979       -0.95494       -0.60135
O         -1.09597       -1.99258       -1.18063
O         -1.66691       -0.03930       -0.08846
C         -3.10411       -0.13101       -0.15021
C         -3.78823       -1.51465       -0.15344
C         -4.74984       -1.40830       -1.36603
C         -3.87945       -1.46583       -2.64288
C         -3.21364       -0.07747       -2.67311
C         -3.75369        0.58692       -1.38059
C         -3.56107        2.09213       -1.36782
C         -5.22819        0.06811       -1.33408
C         -6.11503        0.46238       -2.53543
C         -6.03917        0.44172       -0.07719
H          0.33099        1.12774        0.86406
H          2.07396        0.71990        0.37582
H          1.30033       -1.16391       -0.96269
H         -3.41667        0.38626        0.76476
H         -3.12452       -2.37665       -0.21487
H         -4.36749       -1.64472        0.76848
H         -5.54240       -2.16018       -1.35077
H         -3.14785       -2.27804       -2.61484
H         -4.49161       -1.61971       -3.53771
H         -2.12397       -0.13648       -2.71170
H         -3.51520        0.47352       -3.57116
H         -4.04741        2.56369       -2.22794
H         -3.98334        2.53848       -0.46146
H         -2.49798        2.35240       -1.40297
H         -7.05942       -0.09396       -2.50811
H         -6.35682        1.53075       -2.50379
H         -5.67250        0.27207       -3.51510
H         -5.53206        0.25368        0.87047
H         -6.29930        1.50640       -0.08801
H         -6.97576       -0.12780       -0.04845
