43

C          0.55879        0.02561        0.14485
O          0.60137        1.45472        0.14842
C          0.76228        1.98912        1.40615
C         -0.34424        2.65301        1.94741
C         -0.23479        3.30545        3.17172
C          0.97990        3.29451        3.84417
C          2.08093        2.61715        3.30504
C          2.00529        1.96486        2.07359
N          3.05458        1.27540        1.42858
C          4.32026        0.87877        1.72914
O          4.86984        0.13774        0.89743
C          5.09527        1.28749        2.96102
N          5.05403        2.75792        3.05311
N          5.88540        3.30773        2.30138
C          5.57921        4.66745        2.07600
C          5.39851        5.03933        0.72701
C          5.14893        6.36262        0.35158
C          5.07915        7.35101        1.32341
C          5.23354        7.00655        2.66601
C          5.48068        5.67248        3.05452
C          5.57695        5.44894        4.51629
O          5.11085        6.19486        5.35910
O          6.27916        4.36916        4.89334
C          4.61416        0.63693        4.24042
C          5.51777        0.71170        5.44345
O          3.53024        0.05714        4.34090
H         -0.36027       -0.29106       -0.35569
H          0.59710       -0.42547        1.14237
H          1.40185       -0.34111       -0.45078
H         -1.28862        2.66416        1.41193
H         -1.08736        3.82570        3.59928
H          1.08367        3.81287        4.79541
H          2.97206        2.64784        3.90783
H          2.80360        0.92479        0.51248
H          6.13102        0.94765        2.81670
H          5.44888        4.27599       -0.04854
H          5.01312        6.61738       -0.69736
H          4.89864        8.38615        1.04214
H          5.16445        7.79060        3.41928
H          6.22189        4.39943        5.87094
H          5.26628        1.58926        6.04196
H          5.37947       -0.19387        6.04409
H          6.56505        0.75034        5.13645
