34

C          2.43304        0.00747        0.15938
C          0.93566        0.04217        0.24029
C          0.21333       -1.15512        0.26778
C         -1.18224       -1.13694        0.25484
C         -1.87599        0.07915        0.20162
C         -3.32454        0.07549        0.05860
C         -4.30374       -0.42971        0.90308
Cl        -4.07167       -1.18010        2.41603
N         -5.56282       -0.24273        0.38941
C         -5.38962        0.37045       -0.76698
C         -6.46706        0.83437       -1.58211
N         -7.34304        1.22016       -2.23890
N         -4.05327        0.49380       -1.03873
S         -3.51849        1.31764       -2.41688
O         -4.21936        0.66923       -3.50514
O         -3.76801        2.70197       -2.07453
N         -1.85602        1.14289       -2.73354
C         -1.40176       -0.21046       -3.11951
C         -1.30801        2.17101       -3.64914
C         -1.15658        1.27665        0.25163
C          0.24132        1.25706        0.25828
H          2.84903       -0.54271        1.00866
H          2.74193       -0.48009       -0.77177
H          2.85962        1.01560        0.16507
H          0.73448       -2.11029        0.27711
H         -1.71788       -2.08438        0.25273
H         -1.55275       -0.39028       -4.18746
H         -0.33419       -0.30589       -2.89451
H         -1.92805       -0.98558       -2.55800
H         -1.64817        2.00087       -4.67527
H         -1.59670        3.17748       -3.33382
H         -0.21394        2.13313       -3.62912
H         -1.66750        2.23756        0.24226
H          0.78239        2.20093        0.25268
