36

C          1.02046       -0.01225       -0.59585
C          0.20634        1.10170        0.03531
O          0.89195        2.33557        0.19465
P          2.62195        2.33557        0.19465
S          2.49806        3.72743       -1.26969
O          2.56141        2.98383        1.70794
C          2.16984        2.13020        2.77109
C          0.92728        2.69866        3.43092
O          4.35195        2.33557        0.19465
C          5.12821        3.38102        0.49514
N          5.22212        4.04120        1.67912
C          6.18299        4.90722        1.43937
N          6.67174        4.74465        0.16436
C          7.68284        5.47705       -0.50568
C          7.81872        5.34296       -1.89637
C          8.80054        6.06451       -2.57763
C          9.66480        6.90101       -1.87434
C          9.54040        7.02958       -0.49102
C          8.54361        6.33068        0.19629
N          6.04304        3.70060       -0.41985
H          1.42280        0.29484       -1.56579
H          0.40101       -0.90273       -0.73950
H          1.86660       -0.28931        0.04097
H         -0.67278        1.30167       -0.58588
H         -0.15703        0.78744        1.01854
H          1.97403        1.11742        2.40317
H          2.98975        2.06932        3.49219
H          0.15130        2.92411        2.69209
H          0.51835        1.99923        4.16554
H          1.16129        3.64071        3.93692
H          6.53024        5.66911        2.11964
H          7.14720        4.70180       -2.46633
H          8.88758        5.97361       -3.65770
H         10.43646        7.45298       -2.40544
H         10.22613        7.67433        0.05367
H          8.49043        6.44801        1.27447
