21

C          0.98306        0.04100        0.19502
C          0.52320        0.77328       -1.05596
C          0.97957        0.10542       -2.35806
C          0.47777       -1.33715       -2.58583
C         -1.05017       -1.42080       -2.57766
C          1.00887       -1.90395       -3.91251
O          2.42527       -2.02221       -3.89094
H          0.50791       -0.94024        0.28359
H          0.71866        0.61830        1.08681
H          2.06879       -0.09819        0.19191
H         -0.56628        0.88320       -1.03972
H          0.93327        1.79045       -1.03177
H          0.65399        0.73480       -3.19646
H          2.07612        0.11712       -2.37323
H          0.86867       -1.96807       -1.77817
H         -1.48691       -0.75925       -3.33349
H         -1.38477       -2.44217       -2.78957
H         -1.46158       -1.14500       -1.60225
H          0.60664       -2.90803       -4.08375
H          0.72009       -1.27954       -4.76518
H          2.79853       -1.12980       -3.98545
