31

O          0.01555        0.69422        0.77047
C          1.00142        1.25857        1.63070
C          1.75064        0.18829        2.43242
O          2.68984       -0.66108        1.76780
C          2.63355       -0.83183        0.36004
C          2.12769       -2.18929       -0.15841
O          0.76384       -2.54944       -0.00632
C          0.23500       -2.67868        1.30385
C          0.79597       -3.74115        2.26503
O          2.11031       -3.53290        2.75824
C          3.19448       -4.34214        2.29463
C          2.90020       -5.70099        1.64916
O          2.32967       -5.56700        0.35047
H          0.27007        0.89084       -0.14928
H          1.69119        1.87399        1.04534
H          0.46100        1.91131        2.32290
H          1.04471       -0.44216        2.97921
H          2.32495        0.70022        3.21292
H          2.15216       -0.00490       -0.15760
H          3.68473       -0.77765        0.04627
H          2.28531       -2.16781       -1.24429
H          2.75301       -3.00150        0.18501
H          0.19439       -1.70479        1.77133
H         -0.81760       -2.94762        1.14848
H          0.16544       -3.67900        3.16221
H          0.63026       -4.74701        1.88519
H          3.81910       -4.52256        3.17691
H          3.81911       -3.73417        1.63512
H          3.84076       -6.24309        1.51182
H          2.24258       -6.30753        2.27901
H          1.43025       -5.94198        0.37638
