18

C          1.12106       -0.02837        0.21858
C          0.57272       -0.11071        1.61238
O          0.08371        0.83468        2.21509
O          0.74044       -1.41064        2.07936
C          0.27200       -1.67190        3.37388
C          1.18106       -2.20556        4.28594
C          0.74838       -2.53533        5.56996
C         -0.58801       -2.34392        5.92681
C         -1.49603       -1.82888        4.99909
C         -1.06952       -1.49902        3.71272
H          0.89500        0.95606       -0.20113
H          0.64972       -0.78624       -0.41253
H          2.20508       -0.16404        0.23942
H          2.21741       -2.36143        4.00269
H          1.45041       -2.94285        6.29263
H         -0.92361       -2.59876        6.92903
H         -2.53617       -1.68407        5.27923
H         -1.77900       -1.10329        2.99247
