17

O          0.98974        0.38866        0.03017
N          2.17519        0.03107        0.05185
O          2.78735       -0.34879        1.05805
C          2.91198        0.06447       -1.21311
C          2.49902        0.93751       -2.22533
C          3.20149        0.97138       -3.43188
C          4.30595        0.13309       -3.63159
O          4.94522        0.19619       -4.83426
C          4.71608       -0.74453       -2.61385
N          5.86386       -1.65673       -2.77445
O          6.05345       -2.48197       -1.86720
O          6.58275       -1.56241       -3.77582
C          4.01648       -0.77672       -1.39258
H          1.64033        1.59326       -2.08742
H          2.86973        1.65544       -4.21020
H          4.55991        0.88292       -5.40369
H          4.32093       -1.45141       -0.59282
