69

C          1.14920       -0.31339        0.62663
C          1.03157        1.18816        0.83846
C          1.45439        1.99995       -0.38864
C          0.63758        1.71869       -1.65439
C         -0.86464        1.98125       -1.50645
C         -1.21439        3.44288       -1.20766
C         -0.80052        4.41765       -2.31557
C         -1.46192        4.13052       -3.66807
C         -2.99006        4.24316       -3.63840
C         -3.49085        5.65039       -3.29633
C         -3.05403        6.71423       -4.30907
C         -3.59151        6.46437       -5.72236
C         -5.12087        6.50900       -5.80736
C         -5.71181        7.86787       -5.41742
C         -5.25224        9.01457       -6.32462
C         -5.69291        8.85592       -7.78422
C         -7.21364        8.81339       -7.96873
C         -7.93106       10.07189       -7.47062
C         -7.56314       11.34328       -8.24256
C         -7.94866       11.32171       -9.72737
C         -9.43077       11.06125       -9.99121
C        -10.29966       12.17563       -9.45485
N        -10.65165       13.12728      -10.36318
O        -10.64165       12.26704       -8.28146
H          0.45944       -0.66696       -0.14569
H          0.90773       -0.84551        1.55151
H          2.16716       -0.58594        0.33097
H          0.00539        1.43785        1.12999
H          1.66800        1.47621        1.68312
H          1.39994        3.06684       -0.14176
H          2.51035        1.79695       -0.60451
H          1.04389        2.32099       -2.47516
H          0.78429        0.67793       -1.96399
H         -1.37018        1.65536       -2.42248
H         -1.27999        1.34895       -0.71439
H         -2.29330        3.51730       -1.02993
H         -0.74790        3.75631       -0.26741
H         -1.03328        5.43858       -1.99261
H          0.28731        4.40136       -2.44267
H         -1.04679        4.81365       -4.41714
H         -1.18651        3.13033       -4.01907
H         -3.38758        3.92699       -4.60905
H         -3.40908        3.53218       -2.91831
H         -4.58334        5.62887       -3.21788
H         -3.14212        5.94392       -2.30031
H         -3.37241        7.69859       -3.94952
H         -1.96113        6.77249       -4.35001
H         -3.15275        7.20056       -6.40428
H         -3.24327        5.49548       -6.09592
H         -5.42807        6.24109       -6.82408
H         -5.55772        5.73508       -5.16671
H         -6.80461        7.79440       -5.42137
H         -5.45128        8.10946       -4.38117
H         -5.62590        9.96027       -5.91791
H         -4.16140        9.10927       -6.29259
H         -5.26697        9.67509       -8.37364
H         -5.26043        7.94293       -8.20903
H         -7.43850        8.64452       -9.02741
H         -7.62692        7.94284       -7.44663
H         -9.01212        9.90371       -7.51405
H         -7.71723       10.23169       -6.40801
H         -8.04109       12.19972       -7.75373
H         -6.48592       11.53076       -8.16271
H         -7.66079       12.28247      -10.17136
H         -7.35812       10.55770      -10.24673
H         -9.58990       10.97001      -11.07212
H         -9.77038       10.11458       -9.55957
H        -11.27600       13.85412      -10.03789
H        -10.57327       12.97550      -11.35855
