20

C          1.29090        0.17223       -0.26087
N          0.56913        1.38892       -0.60740
C         -0.88336        1.23522       -0.50151
C         -1.37680        1.12117        0.92142
C         -1.54923        2.26828        1.71025
C         -1.97463        2.15808        3.03520
C         -2.22504        0.90303        3.58662
C         -2.05681       -0.24399        2.81299
C         -1.63752       -0.13548        1.48659
H          0.94138       -0.68318       -0.84816
H          1.20807       -0.06527        0.80419
H          2.35399        0.30806       -0.48252
H          0.86675        2.14165        0.01161
H         -1.35364        2.11385       -0.96100
H         -1.22803        0.38239       -1.09997
H         -1.35277        3.25360        1.29391
H         -2.10748        3.05242        3.63869
H         -2.54983        0.81781        4.62016
H         -2.24786       -1.22325        3.24330
H         -1.50305       -1.03907        0.89576
