25

C          0.90189        0.05897       -0.06458
C          0.28691       -0.12371       -1.44924
C          0.93057       -1.25113       -2.24715
O         -1.15153       -0.25726       -1.41476
C         -1.71194       -1.26825       -0.70982
O         -1.13599       -2.11956       -0.05369
C         -3.18823       -1.16977       -0.79204
C         -3.83235       -0.68234       -1.93804
C         -5.22839       -0.63015       -1.98610
C         -5.96788       -1.05969       -0.88699
O         -7.33057       -1.02798       -0.89187
C         -5.33851       -1.54270        0.25549
C         -3.94536       -1.60685        0.30206
H          0.87159       -0.86133        0.52594
H          0.35845        0.82330        0.50042
H          1.95112        0.36115       -0.14430
H          0.46358        0.80759       -2.00082
H          0.80192       -2.22172       -1.75904
H          0.46635       -1.32852       -3.23621
H          2.00282       -1.07494       -2.37826
H         -3.25518       -0.35563       -2.79958
H         -5.71614       -0.25797       -2.88175
H         -7.63433       -0.70420       -1.75566
H         -5.93014       -1.87336        1.10481
H         -3.45260       -1.99307        1.19190
