44

C          0.92285        0.06306        0.02528
O          0.34473        1.09377       -0.77010
C          0.74119        2.36054       -0.43781
C          2.02646        2.70218       -0.02429
C          2.33064        4.03184        0.27940
C          1.35886        5.03730        0.15914
C          1.65388        6.37842        0.45588
C          0.70030        7.39575        0.28580
C          1.02905        8.85836        0.54511
C          1.58032        9.11208        1.94822
C          1.95311        9.46316       -0.50380
O          1.66143       10.44899       -1.16903
O          3.14542        8.80798       -0.57221
C          4.05942        9.31146       -1.54433
C          3.66795        9.10237       -3.01396
O          3.70212       10.05031       -3.80362
N          3.32720        7.82149       -3.43245
C          3.49222        6.60157       -2.65995
C          2.85921        7.66972       -4.79812
C         -0.58001        7.03982       -0.15777
C         -0.89597        5.70667       -0.43292
C          0.06556        4.69650       -0.28893
C         -0.22628        3.35592       -0.58710
H          0.38379       -0.86469       -0.18912
H          0.81133        0.27673        1.09421
H          1.97347       -0.09740       -0.23492
H          2.81340        1.95930        0.05118
H          3.34024        4.27847        0.60064
H          2.65493        6.63228        0.79999
H          0.09214        9.42910        0.47410
H          2.54035        8.61216        2.11443
H          1.74324       10.18381        2.10855
H          0.87991        8.75757        2.71235
H          4.22874       10.38083       -1.36700
H          5.02491        8.81878       -1.38284
H          2.50622        6.15606       -2.50569
H          4.11475        5.90659       -3.23225
H          3.97522        6.77031       -1.69812
H          2.03781        8.37025       -4.97813
H          3.68021        7.89897       -5.48398
H          2.50594        6.64978       -4.97490
H         -1.34937        7.79752       -0.29675
H         -1.90117        5.46389       -0.77167
H         -1.21836        3.07423       -0.93283
