22

Cl         3.09621       -0.03507       -0.11533
C          1.37826       -0.00164       -0.04116
C          0.71412        1.21786        0.04103
C         -0.67892        1.24014        0.10544
C         -1.40452        0.04265        0.08627
Cl        -3.12730        0.15866        0.20448
C         -0.74622       -1.20118       -0.00301
C         -1.45941       -2.48871       -0.03273
C         -1.36193       -3.38665        1.03943
C         -2.03220       -4.61699        1.01392
Cl        -1.83634       -5.64586        2.39205
C         -2.81705       -4.97736       -0.08957
Cl        -3.64755       -6.50029       -0.12390
C         -2.91533       -4.08587       -1.16606
Cl        -3.85443       -4.43257       -2.57807
C         -2.23989       -2.85858       -1.13720
C          0.66116       -1.19932       -0.06364
H          1.27151        2.15118        0.05845
H         -1.19542        2.19490        0.17553
H         -0.76230       -3.12340        1.91031
H         -2.32752       -2.18122       -1.98628
H          1.20316       -2.14101       -0.13518
