15

O          1.13653        0.07341        0.04837
C          2.36078        0.01167       -0.00759
N          3.04749       -1.19080       -0.04343
C          4.34235       -1.17227       -0.10906
C          5.12264        0.05190       -0.14752
N          6.45271        0.31346       -0.22183
C          6.60848        1.71561       -0.22939
O          7.64710        2.34330       -0.29042
N          5.29458        2.22978       -0.15275
C          4.42735        1.18417       -0.10686
N          3.08450        1.19112       -0.03678
H          4.90370       -2.11918       -0.13813
H          7.21814       -0.34069       -0.26972
H          5.08020        3.21394       -0.14118
H          2.54839        2.04511       -0.00908
