25

C          0.75084       -0.41610        0.84967
C          0.58104        0.71334        1.85199
O          1.00051        1.98288        1.32180
C          2.34101        2.22885        1.33922
O          3.19189        1.45287        1.75465
C          2.66019        3.64307        0.84997
O          1.96436        4.10975       -0.30753
C          2.65237        3.84258       -1.46340
C          3.51309        4.81832       -1.97282
C          4.19366        4.58947       -3.17630
Cl         5.17307        5.86487       -3.80714
C          4.04337        3.36883       -3.84641
Cl         4.88268        2.99425       -5.30829
C          3.15500        2.41434       -3.35565
C          2.42038        2.67913       -2.20205
Cl         1.15331        1.58994       -1.81548
H          0.07939       -0.27652       -0.00287
H          0.50853       -1.38015        1.30522
H          1.77217       -0.46113        0.45915
H         -0.48061        0.81084        2.10270
H          1.11285        0.49507        2.78433
H          2.40062        4.31662        1.67622
H          3.74894        3.72375        0.72388
H          3.62661        5.76712       -1.45387
H          3.00014        1.48047       -3.89092
