47

C          0.88807       -0.67941        0.08356
O          1.31954        0.50386       -1.28256
C          1.57121        1.39421       -2.32081
C          0.68465        2.07881       -3.15278
C          1.07806        3.13352       -3.98893
C         -0.00146        3.83049       -4.79985
N         -0.70415        2.89600       -5.70698
N          0.06065        2.46577       -6.59978
C         -0.41846        1.37737       -7.29151
N         -1.76562        1.14208       -7.29045
S          0.55544        0.32543       -8.15998
C          2.42316        3.48982       -4.01355
C          3.34443        2.79226       -3.21521
C          2.91298        1.76259       -2.37257
O          3.80317        1.15967       -1.51488
C          3.08143        0.24853       -0.64233
O          1.99014        1.19054        0.44016
C          0.29198        1.63037       -0.07834
C          0.51177        3.15283       -0.28568
O         -0.38353        3.85168       -1.11949
C         -0.64275        0.34998       -1.25803
O         -1.72234        0.80521       -2.07334
C          0.42560       -0.96863       -2.23413
O          0.33897       -0.75823       -3.65465
C          2.28688       -1.15555       -1.73124
O          3.05924       -1.45010       -2.89915
H          0.41075       -1.60280       -0.25798
H          0.24108       -0.24713        0.85430
H          1.80373       -0.97731        0.61130
H         -0.37661        1.91471       -3.14435
H         -0.74610        4.24418       -4.10456
H          0.39694        4.68289       -5.36152
H         -2.12664        0.31408       -7.74270
H         -2.36699        1.70669       -6.70717
H          2.75882        4.31298       -4.63938
H          4.38915        3.08637       -3.22200
H          3.78278       -0.20697        0.06653
H         -0.25326        1.55985        0.87448
H          0.48404        3.63121        0.70164
H          1.54116        3.35422       -0.61113
H          0.16904        4.51652       -1.57385
H         -1.20220       -0.26995       -0.54141
H         -1.61932        0.30826       -2.91380
H         -0.04919       -1.94834       -2.08248
H          1.25671       -0.89388       -3.97780
H          2.33032       -2.05855       -1.10165
H          3.85646       -0.89016       -2.85037
