35

C          0.95323        0.06299        0.01591
N          0.49805        1.36930        0.45892
C         -0.52736        2.02100       -0.34537
C          0.83656        1.74069        1.76646
O          1.59068        1.03504        2.44341
C          0.26051        3.05128        2.38006
C          0.90328        4.32374        1.78845
C          1.83740        4.27547        0.73522
C          2.35269        5.43873        0.15862
C          1.96739        6.68251        0.64066
C          1.12020        6.75876        1.74104
C          0.62603        5.59084        2.33144
C         -1.27920        2.96869        2.53307
C         -2.15571        4.04751        2.33309
C         -3.53407        3.91941        2.54591
C         -4.07716        2.69738        2.92476
C         -3.23898        1.60609        3.11390
C         -1.85768        1.74688        2.94576
H          0.76639       -0.07339       -1.05263
H          0.43006       -0.71003        0.58620
H          2.02929       -0.02785        0.19603
H         -1.51218        1.67161       -0.02808
H         -0.47810        3.10579       -0.24655
H         -0.38036        1.77745       -1.40174
H          0.62438        3.04120        3.42136
H          2.18883        3.32980        0.32882
H          3.05225        5.36503       -0.67017
H          2.34466        7.58778        0.17372
H          0.84000        7.72945        2.14154
H         -0.00555        5.68647        3.21299
H         -1.80390        5.02004        2.00727
H         -4.18293        4.78178        2.41203
H         -5.14883        2.59780        3.07419
H         -3.65555        0.64372        3.40061
H         -1.23474        0.87156        3.12917
