21

N          0.91694       -0.41472       -0.57782
C          0.22570       -1.06867        0.37750
O         -0.99052       -1.18820        0.30955
N          0.93601       -1.58173        1.40343
C          2.35662       -1.85283        1.43575
C          2.85398       -1.91805        2.85464
C          3.14355       -3.14677        3.46275
C          3.59236       -3.19223        4.78420
C          3.75073       -2.01283        5.51033
C          3.45766       -0.78604        4.91883
C          3.00887       -0.73868        3.59876
H          0.30860        0.02448       -1.25805
H          1.66184        0.18558       -0.25749
H          0.35921       -2.11326        2.04305
H          2.51825       -2.80547        0.91780
H          2.91666       -1.09181        0.88300
H          3.02068       -4.07739        2.91319
H          3.81582       -4.14900        5.24945
H          4.09770       -2.05015        6.53958
H          3.57343        0.13364        5.48652
H          2.77226        0.22425        3.15138
