68

C          0.93182        0.96783       -0.62715
C          0.20174       -0.36543       -0.67734
C          0.40183       -1.18686        0.59658
C         -0.48851       -0.75238        1.76401
N         -1.78548       -1.40763        1.69467
C         -2.28697       -2.44640        2.41420
O         -3.35740       -2.94789        2.06224
C         -1.56648       -2.96567        3.63936
C         -0.73886       -4.23896        3.40203
C          0.70282       -4.03593        2.89122
N          1.46966       -3.17215        3.81610
C          2.52971       -2.37957        3.47822
O          2.37687       -1.16174        3.61626
C          3.88791       -2.94289        3.07543
C          4.41338       -4.05606        4.00419
C          3.90723       -4.03188        5.44472
C          3.95671       -3.31551        1.58284
C          4.62348       -2.25557        0.69880
C          6.15137       -2.23114        0.77183
C          6.80408       -3.44210        0.11794
C          1.42005       -5.39006        2.65033
O          2.15288       -5.56887        1.67893
N          1.31626       -6.33786        3.65350
C          2.41145       -7.27331        3.79990
C          2.14551       -8.41392        4.76714
C          3.37438       -9.32113        4.91466
C          4.60791       -8.61209        5.46375
H          0.54801        1.60712        0.17260
H          0.81016        1.49895       -1.57621
H          2.00432        0.81793       -0.46231
H         -0.86428       -0.20473       -0.87146
H          0.59813       -0.93822       -1.52450
H          0.19851       -2.23387        0.34666
H          1.45336       -1.12649        0.89846
H         -0.01169       -0.99993        2.70988
H         -0.66528        0.32728        1.75841
H         -2.39495       -1.13530        0.93164
H         -1.02146       -2.16434        4.14001
H         -2.36327       -3.22267        4.35280
H         -0.69556       -4.76905        4.36250
H         -1.27371       -4.89989        2.70816
H          0.66640       -3.53737        1.92315
H          0.85678       -2.54037        4.31008
H          4.57971       -2.10426        3.24520
H          4.21998       -5.03460        3.56569
H          5.50786       -3.97323        4.03835
H          2.87510       -4.38875        5.51584
H          4.50626       -4.70190        6.06948
H          3.95822       -3.02755        5.87596
H          4.45940       -4.27811        1.44068
H          2.94395       -3.42162        1.18647
H          4.32619       -2.43749       -0.34213
H          4.23068       -1.26677        0.96286
H          6.50263       -1.33341        0.24917
H          6.48897       -2.14761        1.80997
H          6.46317       -3.56373       -0.91559
H          7.89173       -3.31796        0.09936
H          6.58511       -4.36421        0.66361
H          0.38075       -6.70328        3.78357
H          2.72234       -7.65066        2.82068
H          3.23101       -6.67633        4.19931
H          1.85191       -8.02040        5.74768
H          1.30206       -9.00997        4.39965
H          3.12009      -10.15117        5.58278
H          3.62351       -9.76007        3.94099
H          4.39254       -8.12921        6.42188
H          5.41831       -9.33163        5.61817
H          4.98325       -7.85208        4.77103
