23

Cl        -1.90402       -1.73901       -0.39658
C         -0.65400       -0.56849       -0.17219
C          0.57638       -1.01757        0.31474
C          1.62057       -0.11492        0.55046
Cl         3.04755       -0.76648        1.27412
C          1.44563        1.24609        0.25837
O          2.33777        2.26422        0.51846
C          3.66649        2.09617        0.22177
C          4.12814        1.64099       -1.01077
C          5.50539        1.49541       -1.22137
Cl         6.00458        0.89571       -2.76677
C          6.42494        1.82456       -0.21091
Cl         8.12979        1.62618       -0.46716
C          5.94275        2.31962        1.00914
Cl         6.98675        2.76766        2.31418
C          4.56944        2.46594        1.21768
C          0.20503        1.69045       -0.22145
C         -0.84320        0.79058       -0.43475
Cl        -2.34758        1.42583       -0.99608
H          0.71281       -2.07379        0.53930
H          3.42842        1.39290       -1.80451
H          4.19443        2.84524        2.16573
H          0.05343        2.75222       -0.40783
