22

C          1.17864       -0.14173        0.17577
C          0.47646        1.01199        0.89894
C          1.28426        2.33314        0.80175
N          1.27360        2.93054       -0.54044
C         -0.11228        3.09969       -1.01253
C         -0.08448        3.61152       -2.45106
C         -0.93525        1.78729       -0.92030
N         -0.91675        1.17326        0.42255
H          1.32320        0.05434       -0.89127
H          0.60458       -1.06956        0.27532
H          2.16729       -0.31806        0.61371
H          0.42011        0.73531        1.95926
H          0.87574        3.05802        1.51793
H          2.32381        2.15117        1.09710
H          1.74312        3.83447       -0.51694
H         -0.60138        3.86063       -0.38948
H         -1.10163        3.77581       -2.82252
H          0.45170        4.56460       -2.51968
H          0.40764        2.89758       -3.12122
H         -0.58303        1.05905       -1.66068
H         -1.97964        1.99884       -1.17957
H         -1.38565        1.81771        1.05902
