24

C          2.50696       -1.48978        0.01518
C          1.23116       -0.69401        0.00792
C          0.00366       -1.37874        0.00458
C         -1.22738       -0.70039        0.00185
C         -2.49904       -1.50278       -0.00537
C         -1.23125        0.70328        0.00722
C         -2.49029        1.52619        0.01545
C         -0.00353        1.38737        0.00581
C          1.22773        0.70967        0.00431
C          2.48249        1.53912       -0.00339
H          3.09537       -1.27314       -0.88205
H          3.09534       -1.25551        0.90816
H          2.31135       -2.56740        0.02687
H          0.00648       -2.46793        0.00413
H         -3.08571       -1.29336        0.89471
H         -3.09147       -1.26749       -0.89539
H         -2.29784       -2.57929       -0.02289
H         -2.51546        2.15827        0.90955
H         -2.52442        2.16456       -0.87369
H         -3.39890        0.91934        0.01873
H         -0.00636        2.47709        0.00607
H          2.50839        2.16574       -0.90127
H          2.50925        2.18318        0.88191
H          3.39426        0.93704        0.00191
