23

O          1.22561       -0.58752        0.13431
C          2.36507       -0.15372        0.05736
O          3.27401       -0.35795        1.04146
C          2.92457        0.59780       -1.16713
O          2.15958        0.41807       -2.36098
C          0.97821        1.19564       -2.49053
O         -0.03984        0.78779       -1.58725
C          1.21052        2.69641       -2.25942
O         -0.03252        3.40561       -2.27932
C          1.93351        2.92426       -0.92333
O          1.14580        2.60154        0.23349
C          3.21121        2.07790       -0.88066
O          3.90141        2.23122        0.36489
H          4.12088        0.11377        0.88858
H          3.88232        0.09980       -1.36878
H          0.58822        1.03899       -3.50177
H          0.17238       -0.13681       -1.33659
H          1.83795        3.09328       -3.06561
H         -0.67746        2.83273       -1.81486
H          2.17979        3.98612       -0.81201
H          0.47157        1.93301       -0.01563
H          3.88161        2.45086       -1.66534
H          3.24386        2.60606        0.99370
