74

C          0.83858        0.04599        0.07207
C          0.20160        1.08566        0.62664
C          0.93088        2.23357        1.28513
C          0.49689        3.57628        0.70182
C         -1.02582        3.72797        0.73197
O         -1.39141        4.94560        0.08265
C         -1.72401        2.54015        0.05440
C         -1.25960        1.21356        0.61918
C         -2.03144        0.23308        1.12114
C         -3.47446        0.25117        1.27147
C         -4.26375       -0.76528        1.67695
C         -3.75991       -2.16350        1.95796
C         -3.98840       -2.49695        3.42414
C         -5.47239       -2.42401        3.75956
C         -6.15567       -1.07880        3.41045
C         -7.68334       -1.30681        3.54837
C         -5.77979       -0.64268        1.94395
C         -6.34497        0.77631        1.89031
C         -6.08462        1.35712        3.27978
C         -5.70800        0.18856        4.22909
C         -6.23934        0.37747        5.68912
C         -5.77633       -0.76781        6.60613
C         -5.79201        1.70728        6.36529
C         -6.49422        3.01752        5.95862
C         -8.03479        2.96727        5.90801
O         -8.54021        2.71200        7.22631
C         -8.68633        4.26692        5.33415
C         -8.32853        4.48151        3.85761
C        -10.21492        4.20578        5.47406
O         -8.20698        5.40846        6.05642
H          0.29970       -0.76258       -0.41489
H          1.92232       -0.02650        0.08446
H          0.72158        2.21638        2.36271
H          2.01671        2.12776        1.17539
H          0.86043        3.67229       -0.32996
H          0.96207        4.39865        1.25855
H         -1.36447        3.80433        1.77226
H         -1.07164        4.90215       -0.83511
H         -1.51309        2.55858       -1.02418
H         -2.80576        2.68593        0.12577
H         -1.52490       -0.64821        1.50867
H         -3.92518        1.21765        1.08006
H         -4.30409       -2.87139        1.31935
H         -2.70429       -2.30656        1.71822
H         -3.41605       -1.82039        4.06937
H         -3.62389       -3.51092        3.62627
H         -5.61050       -2.69515        4.80628
H         -5.97312       -3.22203        3.19186
H         -8.04375       -2.00655        2.78605
H         -7.93065       -1.73382        4.52651
H         -8.26487       -0.38513        3.44915
H         -6.29677       -1.27001        1.20640
H         -5.95746        1.40911        1.08826
H         -7.42746        0.73592        1.71294
H         -6.99404        1.86688        3.59291
H         -5.27268        2.09178        3.24519
H         -4.61128        0.18114        4.29787
H         -7.33222        0.34212        5.68536
H         -4.70770       -0.97303        6.48350
H         -5.95216       -0.53744        7.66284
H         -6.34333       -1.67993        6.41031
H         -5.92698        1.61526        7.45132
H         -4.71087        1.83527        6.22117
H         -6.19340        3.77478        6.69539
H         -6.08022        3.35622        5.00738
H         -8.37576        2.13508        5.28557
H         -8.09692        1.92142        7.57291
H         -8.62496        3.62620        3.24212
H         -8.82852        5.37388        3.46305
H         -7.25749        4.66076        3.72097
H        -10.51980        4.18906        6.52569
H        -10.68465        5.09371        5.03536
H        -10.62525        3.32148        4.97450
H         -8.78630        6.16024        5.84878
