53

C         -2.01528        1.47078        1.13188
N         -0.64592        1.09111        0.91283
C          0.33139        2.15643        1.05955
C          1.63008        1.40329        0.86385
C          1.38357        0.12037        1.64302
C         -0.12126       -0.16469        1.46597
C         -0.69654       -0.95549        2.66913
C         -2.10717       -1.47470        2.51793
C         -3.20600       -0.84837        3.08028
N         -4.33544       -1.49585        2.67750
C         -4.01133       -2.58170        1.90231
C         -4.85762       -3.49952        1.26898
C         -4.27744       -4.55861        0.56574
C         -2.89055       -4.73014        0.52017
C         -2.31529       -5.95628       -0.17814
C         -2.57403       -6.04267       -1.69059
S         -1.06849       -6.09765       -2.67813
O         -0.07286       -6.90418       -2.00162
O         -1.42301       -6.36262       -4.06106
C         -0.58713       -4.39805       -2.57938
C         -1.31785       -3.47463       -3.33459
C         -1.40475       -2.16636       -2.88606
C         -0.71308       -1.79333       -1.73907
C          0.14348       -2.69627       -1.09526
C          0.21770       -4.01216       -1.51545
C         -2.06239       -3.78543        1.18162
C         -2.61687       -2.65556        1.84580
H         -2.22122        1.71176        2.17761
H         -2.26345        2.35400        0.53092
H         -2.69426        0.68677        0.78438
H          0.20962        2.93852        0.30268
H          0.29056        2.61155        2.05576
H          2.50026        1.95764        1.22660
H          1.78801        1.17757       -0.19936
H          1.63300        0.28770        2.69724
H          2.00778       -0.69590        1.26484
H         -0.21224       -0.84838        0.63873
H         -0.04572       -1.82245        2.85137
H         -0.63081       -0.33379        3.57099
H         -3.27071        0.03947        3.69508
H         -5.27837       -1.22195        2.91384
H         -5.93712       -3.39876        1.32358
H         -4.93614       -5.27422        0.07668
H         -1.25465       -6.05292        0.07172
H         -2.79650       -6.82879        0.28565
H         -3.10639       -6.96783       -1.93402
H         -3.17825       -5.21061       -2.06925
H         -1.90565       -3.79227       -4.19182
H         -2.05975       -1.45463       -3.38066
H         -0.87856       -0.79657       -1.33619
H          0.68315       -2.42019       -0.19566
H          0.78366       -4.73575       -0.93326
H         -0.98657       -3.92626        1.20061
