30

C          0.63790        0.06515        0.56360
C         -0.03098       -1.06572        0.84493
C         -1.45777       -1.29577        0.46714
C          0.70605       -2.13761        1.56435
O          1.66645       -1.93539        2.28855
O          0.20470       -3.34918        1.22098
C          0.98616       -4.49199        1.61056
C          1.80566       -4.99862        0.42274
O          2.91530       -4.12188        0.14951
C          2.72559       -3.16876       -0.79906
O          1.71444       -3.04209       -1.47755
C          3.95287       -2.30802       -0.97859
C          4.58252       -1.87668        0.33749
C          5.50652       -2.93854        0.85954
O          6.44346       -3.43424        0.25537
O          5.21077       -3.32910        2.11107
H          0.16701        0.88239        0.02767
H          1.67817        0.19830        0.84907
H         -1.54421       -2.10671       -0.26287
H         -2.04824       -1.55478        1.35214
H         -1.90690       -0.40130        0.02232
H          1.63160       -4.27358        2.46860
H          0.27570       -5.26578        1.91880
H          2.23837       -5.97329        0.67126
H          1.17890       -5.13358       -0.46593
H          4.65584       -2.84000       -1.62761
H          3.62518       -1.40523       -1.50886
H          5.18644       -0.97360        0.19311
H          3.82423       -1.63527        1.08596
H          5.86266       -4.03162        2.31023
