50

C          0.25496       -0.08421        0.08818
O          1.05233       -1.03868        0.79443
C          1.24140       -2.18470        0.05882
C          0.11306       -2.98096       -0.21540
C          0.22432       -4.17388       -0.92361
N         -0.86093       -4.94889       -1.31701
C         -2.08012       -5.04408       -0.52639
C         -3.15810       -5.61200       -1.43262
C         -3.89310       -4.68985       -2.18759
C         -4.78286       -5.11723       -3.16748
C         -4.99582       -6.45731       -3.42546
N         -5.80766       -6.74538       -4.44533
C         -6.02242       -8.02649       -4.71836
N         -6.73503       -8.32235       -5.86366
N         -5.54365       -9.04229       -4.01162
C         -4.75225       -8.73395       -2.97413
N         -4.37281       -9.85653       -2.22813
C         -4.34744       -7.42193       -2.64033
C         -3.37010       -6.99392       -1.65593
C         -2.54343       -8.02454       -0.92159
C          1.49923       -4.52595       -1.37841
C          2.64895       -3.77234       -1.08013
O          3.77916       -4.35520       -1.59829
C          5.00390       -3.64018       -1.56560
C          2.53149       -2.58602       -0.33578
O          3.69169       -1.93879       -0.00691
C          3.65463       -0.54239        0.24278
H         -0.80052       -0.21273        0.34528
H          0.39333       -0.13993       -0.99848
H          0.56684        0.91338        0.41270
H         -0.85461       -2.63770        0.13253
H         -0.58365       -5.85220       -1.69276
H         -1.92979       -5.66621        0.36220
H         -2.41752       -4.06894       -0.15828
H         -3.73139       -3.62094       -2.05734
H         -5.30450       -4.37352       -3.76678
H         -6.44982       -9.23282       -6.19794
H         -6.63498       -7.55317       -6.51291
H         -4.67992       -9.75526       -1.26637
H         -4.83169      -10.65370       -2.66537
H         -3.14387       -8.51290       -0.14863
H         -2.14702       -8.76736       -1.62154
H         -1.66144       -7.60322       -0.43508
H          1.62334       -5.42557       -1.97921
H          4.91209       -2.65771       -2.03969
H          5.39163       -3.57306       -0.54478
H          5.73347       -4.21146       -2.14848
H          3.07299       -0.00694       -0.51419
H          3.30138       -0.33502        1.25674
H          4.68243       -0.17076        0.18112
