34

C          0.91839        0.19577       -0.07955
O          0.33350        0.02932       -1.37343
C          0.93122        0.76698       -2.35268
O          1.77091        1.63465       -2.13910
N          0.57128        0.41680       -3.62426
C         -0.29800       -0.57736       -3.98013
N         -0.34818       -1.11478       -5.17682
C         -1.26154       -2.13790       -5.08027
C         -1.62379       -3.11087       -6.02256
C         -2.57711       -4.08649       -5.67809
S         -2.90045       -5.34491       -6.91064
C         -4.36262       -6.19973       -6.37044
C         -4.29838       -7.57642       -6.12591
C         -5.44213       -8.28179       -5.74505
C         -6.65774       -7.61456       -5.60707
C         -6.73268       -6.24532       -5.85843
C         -5.59126       -5.54205       -6.25015
C         -3.16804       -4.05308       -4.40587
C         -2.83347       -3.07645       -3.45476
C         -1.85484       -2.15655       -3.82523
N         -1.22932       -1.14382       -3.14840
H          0.54595       -0.60804        0.56199
H          0.61998        1.15633        0.34829
H          2.00953        0.10999       -0.12564
H          1.12980        0.80904       -4.36909
H         -1.13401       -3.11162       -6.99081
H         -3.35884       -8.11294       -6.23940
H         -5.38451       -9.35230       -5.56459
H         -7.54882       -8.16371       -5.31336
H         -7.68196       -5.72545       -5.75909
H         -5.66745       -4.47766       -6.45912
H         -3.89670       -4.80496       -4.11218
H         -3.29537       -3.06536       -2.47339
H         -1.37272       -0.87937       -2.18474
