83

C          0.92734        0.34568       -0.23744
C          0.20891        0.67045        1.07470
C          0.46137        2.14474        1.40953
C         -1.30316        0.36649        0.99089
C         -1.76401       -1.00306        1.56246
C         -3.32926       -0.99496        1.68791
O         -3.99156        0.03311        1.81795
N         -3.91589       -2.24335        1.79319
C         -5.34601       -2.45202        1.74909
C         -5.48158       -3.94852        1.97372
C         -4.25109       -4.51675        1.25720
C         -3.16572       -3.47189        1.53164
C         -2.11699       -3.22915        0.41300
O         -2.71103       -2.80958       -0.78913
O         -1.29778       -4.37019        0.15703
C          0.07412       -3.93035        0.01464
N          0.22996       -3.37977       -1.35675
C         -0.08479       -3.92422       -2.55844
O         -0.94727       -3.29714       -3.19525
C          0.54352       -5.15682       -3.22347
C         -0.40506       -6.35836       -3.24025
C          0.20716       -7.45773       -3.74374
C          0.45616       -7.49392       -5.21604
C         -0.24709       -6.80141       -6.21278
C          0.13625       -6.89050       -7.55844
C          1.21445       -7.68933       -7.96678
C          1.88573       -8.39755       -6.96843
N          2.94917       -9.27244       -7.01500
C          3.23791       -9.72627       -5.75337
Br         4.56503      -10.96986       -5.36076
C          2.37324       -9.12905       -4.87104
C          1.51967       -8.30369       -5.63301
C          2.15248       -9.24685       -3.41009
C          1.34584       -8.02245       -2.82816
N          2.11236       -6.88591       -2.20596
C          3.48243       -7.17770       -1.81866
C          2.00296       -5.58502       -2.91912
C          1.11440       -5.01295        0.39008
C          2.17208       -4.63722        1.43554
C          0.50231       -6.36200        0.76597
C          0.01647       -2.70448        0.96317
O          0.90379       -2.22533        1.64478
N         -1.24749       -2.17105        0.81675
H          0.62713        1.03447       -1.03449
H          0.71414       -0.66379       -0.58710
H          2.01230        0.42881       -0.11225
H          0.65267        0.09601        1.89272
H          0.03557        2.80699        0.64891
H          0.02111        2.40443        2.37788
H          1.53701        2.34555        1.47245
H         -1.82862        1.14926        1.55403
H         -1.65085        0.46426       -0.04586
H         -1.39007       -1.09423        2.59098
H         -5.69996       -2.16645        0.75116
H         -5.85929       -1.84068        2.49619
H         -6.42306       -4.35070        1.59007
H         -5.42429       -4.16949        3.04682
H         -4.46003       -4.61506        0.18747
H         -3.97558       -5.50336        1.64287
H         -2.65477       -3.73103        2.46941
H         -2.99917       -3.62114       -1.23866
H         -0.27136       -2.49410       -1.37791
H          0.59550       -4.80651       -4.26905
H         -0.80035       -6.46001       -2.22624
H         -1.08656       -6.16326       -5.94583
H         -0.41440       -6.32108       -8.30509
H          1.50234       -7.75300       -9.01071
H          3.42987       -9.56030       -7.85490
H          3.09313       -9.42123       -2.88197
H          1.55198      -10.15194       -3.24077
H          0.82155       -8.46416       -1.96625
H          4.13375       -7.34470       -2.68239
H          3.90160       -6.34779       -1.23805
H          3.52110       -8.05052       -1.15796
H          2.54879       -5.67497       -3.86952
H          2.51413       -4.78640       -2.36967
H          1.71475       -5.17791       -0.49308
H          1.73020       -4.49450        2.42671
H          2.92215       -5.43183        1.52474
H          2.71775       -3.73400        1.14257
H         -0.17966       -6.72078       -0.00906
H          1.28770       -7.11895        0.87786
H         -0.04394       -6.30215        1.71176
