48

C          1.11488       -0.16118       -0.04084
N          0.34457       -1.38270        0.01444
C         -0.48643       -1.83867        1.00435
O         -0.95973       -2.96858        0.94805
C         -0.76907       -1.00744        2.18701
C         -0.54296       -1.56341        3.45142
C         -0.77443       -0.79749        4.59426
C         -1.25883        0.51124        4.47102
C         -1.38885        1.32233        5.69388
C         -2.71717        1.97304        6.00896
N         -2.92530        2.65315        7.09050
C         -1.85682        2.73743        7.93217
N         -1.77756        3.33175        9.10522
C         -0.49225        3.13626        9.54158
C          0.24846        2.41863        8.62665
C          1.68134        2.00897        8.62227
C          1.89487        0.51876        8.77032
C          2.00405       -0.07646       10.02886
C          2.14199       -1.46612       10.14309
C          2.14954       -2.29795        9.03060
N          2.23380       -3.63173        9.18991
C          2.20572       -4.40710        8.08276
C          2.11066       -3.91321        6.79582
C          2.04544       -2.53617        6.63354
C          2.05369       -1.70093        7.75848
C          1.94948       -0.30537        7.63812
N         -0.63299        2.15454        7.60673
N         -0.36080        1.43865        6.48079
C         -1.53293        1.05399        3.21552
C         -1.28740        0.28367        2.07878
F         -1.54849        0.82203        0.87940
H          1.26684        0.26714        0.95145
H          0.58901        0.54907       -0.68334
H          2.08668       -0.39374       -0.48393
H          0.44022       -2.03514       -0.75555
H         -0.17486       -2.58392        3.54233
H         -0.57356       -1.22076        5.57749
H         -3.51661        1.83274        5.26484
H         -0.16260        3.53783       10.49170
H          2.16377        2.35915        7.70041
H          2.21133        2.52326        9.43514
H          1.97600        0.52832       10.93249
H          2.22666       -1.91525       11.12994
H          2.26153       -5.47613        8.26787
H          2.08742       -4.58215        5.94334
H          1.97694       -2.11817        5.63329
H          1.87773        0.14394        6.64950
H         -1.89490        2.07034        3.09556
