39

C          0.77454       -0.11492        0.01531
C          0.71800        0.76756        1.23436
O          0.46788        1.96681        1.19527
C          0.99969        0.13179        2.54373
C          2.31999       -0.18842        2.88302
C          3.46310        0.20543        1.96826
C          2.55203       -0.90917        4.09416
N          3.90155       -1.46896        4.18142
O          4.73460       -0.87595        4.87303
O          4.12685       -2.45544        3.46614
C          1.54108       -1.19931        5.07737
C          1.87774       -1.87716        6.45641
C          2.55629       -3.25681        6.25723
C          2.76074       -0.92720        7.30658
C          0.71616       -2.22115        7.43515
C          0.23974       -0.76759        4.67436
N         -0.92268       -0.94802        5.52680
O         -1.55091       -2.00615        5.39317
O         -1.22979        0.00092        6.25867
C         -0.05924       -0.14940        3.41823
C         -1.47744        0.25423        3.06107
H          0.12588        0.30151       -0.76057
H          0.41271       -1.11969        0.25178
H          1.79749       -0.16920       -0.36373
H          4.35336        0.48507        2.54091
H          3.70986       -0.61573        1.28919
H          3.22286        1.09390        1.37544
H          3.52673       -3.22175        5.76966
H          2.74486       -3.74941        7.21952
H          1.90807       -3.92131        5.67233
H          2.16959       -0.08036        7.67823
H          3.17265       -1.44763        8.17988
H          3.60107       -0.48708        6.77844
H          0.17553       -1.33468        7.77632
H          0.01948       -2.94936        7.01198
H          1.10497       -2.68150        8.35450
H         -2.18736       -0.54594        3.29232
H         -1.75534        1.16003        3.60899
H         -1.60947        0.44853        1.99341
