12

F          2.16364       -0.01462       -0.00136
C          0.82405       -0.00612       -0.00116
C          0.13186       -1.21230       -0.00105
C         -1.26275       -1.20376       -0.00106
C         -1.95137        0.01150       -0.00072
C         -1.24738        1.21792       -0.00061
C          0.14723        1.20875       -0.00107
H          0.68198       -2.14754       -0.00098
H         -1.81277       -2.14129       -0.00131
H         -3.03887        0.01840       -0.00054
H         -1.78545        2.16235       -0.00020
H          0.70918        2.13694       -0.00133
