35

O          1.54984       -0.36545        0.46228
C          0.59432       -1.30016        0.96876
C          1.01848       -2.70814        0.57164
O          2.27703       -3.00199        1.20975
C          2.43887       -4.42679        1.09555
N          3.55957       -4.80357        1.92524
C          4.83882       -4.81856        1.40405
N          5.75527       -4.95953        2.32930
C          5.05118       -5.05132        3.50680
C          3.68613       -5.04428        3.27320
N          2.68252       -5.29337        4.15249
C          2.87143       -6.09679        5.26037
N          3.82665       -6.18546        6.11273
C          4.87407       -5.14769        6.05073
C          5.77828       -5.16047        4.80725
O          6.67116       -6.27811        4.81221
C          1.04632       -5.02390        1.27588
C          0.10351       -3.85485        0.99685
O         -0.64129       -3.57351        2.17874
H          2.42095       -0.66114        0.79147
H          0.57413       -1.17362        2.05577
H         -0.38525       -1.04543        0.55673
H          1.20609       -2.75007       -0.50952
H          2.74103       -4.62987        0.05768
H          5.03831       -4.68851        0.34729
H          1.72035       -5.28198        3.84982
H          2.02653       -6.79858        5.37435
H          5.49991       -5.28444        6.94036
H          4.39468       -4.16533        6.15715
H          6.41863       -4.27122        4.88438
H          7.06601       -6.27058        3.91982
H          0.85241       -5.45768        2.25393
H          0.89760       -5.83799        0.55784
H         -0.61910       -4.09312        0.21021
H         -0.04673       -3.20057        2.85368
