26

O          0.72622       -0.06545       -0.33554
C          1.91108       -0.32384       -0.20143
O          2.37473       -0.98303        0.89196
C          2.98956       -0.09628       -1.27249
O          2.84770       -1.04361       -2.33841
C          2.91440        1.31311       -1.85533
C          3.14263        2.47496       -0.92600
C          2.66766        3.74808       -1.19569
N          2.96671        4.56444       -0.14432
C          3.63586        3.85883        0.82449
C          4.08229        4.28231        2.08319
C          4.75773        3.35847        2.88075
C          5.01355        2.07506        2.41571
C          4.57134        1.67444        1.14839
C          3.82607        2.56096        0.33917
H          3.33416       -1.15397        0.90000
H          3.98226       -0.27109       -0.85554
H          2.53415       -1.88388       -1.95865
H          3.62880        1.39306       -2.68563
H          1.92605        1.43737       -2.32281
H          2.11773        4.13123       -2.04589
H          2.71925        5.54181       -0.07475
H          3.89970        5.29152        2.43813
H          5.09624        3.65108        3.87175
H          5.56020        1.37443        3.04205
H          4.82230        0.67723        0.81571
