45

C          1.36211        0.02426        0.21456
S          0.14283       -0.74510        1.12765
C         -0.62891        0.28705        2.24633
C         -0.93259       -1.70248        0.15526
O          0.97226       -1.81508        2.02529
C          0.35165       -2.49483        3.12735
C          1.25434       -2.37139        4.39909
C          1.75088       -3.66932        5.02084
C          2.40042       -3.67911        6.36022
O          2.96789       -4.65640        6.83382
O          2.31156       -2.46305        6.95069
C          3.05271       -2.32371        8.17467
C          2.30649       -2.92085        9.35503
C          1.70354       -4.84693        4.36555
C          1.21739       -4.86748        2.96781
O          0.64094       -6.10698        2.55466
C         -0.13987       -5.70733        1.40239
C          0.66005       -6.02661        0.14197
C         -1.48263       -6.42389        1.39630
O         -0.39684       -4.28591        1.47966
C          0.03655       -3.95208        2.80062
H          1.09449        0.71656       -0.59796
H          2.42876       -0.14892        0.41338
H         -1.72152        0.26033        2.37616
H         -0.05617        1.00175        2.85400
H         -0.35340       -2.44200       -0.40013
H         -1.67136       -2.18434        0.79698
H         -1.44598       -1.04133       -0.54601
H         -0.60058       -1.99842        3.34624
H          0.67166       -1.82604        5.15183
H          2.12873       -1.74777        4.16948
H          4.05235       -2.76324        8.07190
H          3.19349       -1.25047        8.33977
H          2.16667       -3.99961        9.23567
H          2.85791       -2.74897       10.28445
H          1.31023       -2.47776        9.44731
H          2.08729       -5.76917        4.79340
H          2.04798       -4.63658        2.28885
H          0.84533       -7.10386        0.06221
H          0.14842       -5.67976       -0.76049
H          1.64154       -5.53970        0.16504
H         -2.06809       -6.15277        2.28191
H         -2.07485       -6.12851        0.52230
H         -1.36191       -7.51073        1.39968
H         -0.77602       -4.26404        3.47582
