52

C         -0.61901       -0.37729       -0.15931
N         -0.92412        0.85062        0.55301
C         -2.31636        1.24000        0.34071
C         -0.53945        0.94080        1.97382
C          0.10626       -0.23056        2.73034
C          1.47430       -0.75169        2.28841
O          2.55253        0.14189        2.51827
C          3.37100        0.62674        1.42448
C          3.71687       -0.41686        0.30261
C          4.72352       -1.51466        0.57201
C          5.94158       -1.51750       -0.12668
C          6.86289       -2.55166        0.03917
C          6.57759       -3.60172        0.90820
C          5.37640       -3.61032        1.61203
C          4.45335       -2.57391        1.44648
C          2.62117        1.79349        0.72999
C          2.48834        3.07087        1.56279
C          3.62033        4.05812        1.28511
C          5.00325        3.63210        1.77083
C          5.44479        2.21986        1.37948
C          4.65900        1.14097        2.12694
H         -1.03412       -0.35860       -1.17429
H         -1.00488       -1.26891        0.34302
H          0.45669       -0.47292       -0.31564
H         -3.00979        0.51728        0.78447
H         -2.51537        2.22925        0.76703
H         -2.53794        1.31793       -0.73015
H          0.10188        1.81919        2.08529
H         -1.43152        1.19976        2.56301
H          0.20146        0.09087        3.77695
H         -0.60153       -1.06885        2.73367
H          1.68091       -1.60973        2.94051
H          1.44812       -1.16649        1.28887
H          2.81593       -0.89909       -0.08836
H          4.09823        0.14465       -0.56205
H          6.17954       -0.71307       -0.82065
H          7.79657       -2.54079       -0.51526
H          7.29017       -4.41223        1.03270
H          5.15199       -4.43172        2.28882
H          3.52179       -2.61452        1.99867
H          3.09187        2.04641       -0.22842
H          1.62314        1.45102        0.46221
H          2.40773        2.85457        2.63382
H          1.55204        3.56631        1.27575
H          3.37081        5.01487        1.76110
H          3.66499        4.26130        0.20768
H          5.04429        3.73396        2.86262
H          5.73457        4.34738        1.37415
H          6.50099        2.12165        1.66046
H          5.40422        2.07938        0.29412
H          4.41239        1.50650        3.13383
H          5.32825        0.29593        2.32658
