16

C          1.11337        0.04678       -0.00454
C          0.54261        0.91474       -1.12206
C          1.00975        0.48440       -2.53491
C          0.50308       -0.92459       -2.79649
N          0.08275       -2.09347       -3.01349
C          0.50308        1.41543       -3.62435
C          1.00975        2.82443       -3.36277
N          1.43007        3.99331       -3.14578
H          0.74951       -0.98315       -0.06521
H          0.81119        0.44588        0.96930
H          2.20723        0.03162       -0.03952
H         -0.55333        0.89231       -1.06348
H          0.84965        1.94655       -0.91884
H          2.10745        0.46114       -2.55209
H          0.85320        1.08912       -4.61085
H         -0.59311        1.43286       -3.65607
