13

C          0.93822        0.04486       -0.03042
C          0.40627        0.92667       -1.15945
C          0.93822        0.50952       -2.52996
O         -1.02160        1.04472       -1.13750
N         -1.64295       -0.18179       -1.36551
O         -2.87144       -0.06290       -1.34340
H          0.65883       -1.00483       -0.16976
H          0.52309        0.36318        0.93177
H          2.03014        0.09864        0.02490
H          0.77434        1.94271       -0.97057
H          0.65883       -0.52011       -2.77717
H          0.52308        1.15238       -3.31346
H          2.03014        0.57959       -2.56226
