14

C          1.04240        0.10788       -0.06058
C          0.51428        0.01225       -1.48357
C          0.94237       -1.26468       -2.21567
C          0.49407       -2.57161       -1.57918
Br        -1.43435       -2.79773       -1.70054
H          0.59122       -0.64971        0.58669
H          0.80216        1.08835        0.36325
H          2.12960       -0.01486       -0.03467
H         -0.57695        0.10461       -1.47341
H          0.89068        0.87268       -2.05052
H          0.57550       -1.21160       -3.24849
H          2.03781       -1.27371       -2.27889
H          0.92277       -3.42390       -2.11467
H          0.76620       -2.65171       -0.52452
