29

C          1.97007        0.51504        0.23332
C          1.29245        0.22887       -1.06757
O          0.42182       -0.62716       -1.17704
O          1.69041        1.07289       -2.04472
C          0.95730        1.23476       -3.29069
C          0.77732        0.01902       -4.21872
C         -0.18034       -1.13786       -3.87480
O         -1.54638       -0.71555       -3.76733
C         -2.21071       -0.83205       -2.59267
C         -2.21051        0.45802       -1.82516
O         -2.95940       -1.76624       -2.34171
O          0.56927        0.48123       -5.60950
C         -0.51530        0.88992       -6.30106
C         -1.80863        1.16984       -5.60717
O         -0.43769        1.03216       -7.52056
H          1.76605       -0.30715        0.92865
H          1.56267        1.43586        0.65866
H          3.05047        0.58775        0.10070
H          0.03415        1.78684       -3.10812
H          1.56988        1.95955       -3.84547
H          1.76938       -0.44812       -4.26753
H         -0.15627       -1.83613       -4.72099
H          0.13643       -1.72809       -3.01530
H         -2.91569        1.16068       -2.27318
H         -2.46795        0.26736       -0.78203
H         -1.22997        0.91791       -1.82400
H         -2.34609        1.95446       -6.14944
H         -2.44212        0.27862       -5.62824
H         -1.65932        1.54898       -4.59764
