23

C          1.14943        0.07768       -0.01440
C          0.53662       -1.27273       -0.36882
C          1.05473       -2.38703        0.53584
S         -1.29191       -1.22969       -0.43643
S         -1.88448       -0.98203        1.48734
O         -1.41139        0.41947        1.72859
C         -3.71618       -0.94951        1.39816
C         -4.24748        0.15154        0.48855
C         -4.26720       -2.31924        1.02051
H          0.99964        0.33939        1.03695
H          0.74295        0.88082       -0.63833
H          2.23238        0.05235       -0.18195
H          0.84874       -1.51085       -1.39269
H          0.83133       -2.20263        1.59153
H          0.63245       -3.35826        0.25581
H          2.14409       -2.46851        0.44720
H         -4.03767       -0.72625        2.42251
H         -4.00092       -0.02372       -0.56319
H         -5.33905        0.21052        0.56147
H         -3.84531        1.13064        0.76939
H         -3.88725       -3.09738        1.69156
H         -5.36039       -2.32477        1.08987
H         -4.00007       -2.60180       -0.00298
