12

Cl         3.01023        1.18169       -0.00963
C          1.29591        0.94767        0.00572
C          0.50055        2.09643        0.02595
C         -0.88797        1.98398        0.03873
C         -1.48840        0.72223        0.03100
Cl        -3.21803        0.67737        0.04727
C         -0.69951       -0.44038        0.01080
Cl        -1.46132       -2.00369        0.00115
C          0.70410       -0.32672       -0.00165
Cl         1.70721       -1.74715       -0.02574
H          0.95795        3.08412        0.03182
H         -1.49813        2.88524        0.05459
