25

C          0.55131        0.18766       -0.10157
C          0.72961        1.57904        0.48530
O          1.22999        2.51900       -0.47843
C          2.51661        2.34968       -0.88290
O          3.25566        1.46106       -0.47858
N          2.88486        3.27762       -1.84042
C          2.07083        4.45150       -2.14733
C          2.86787        5.53849       -2.84962
C          3.51846        4.96418       -4.08485
O          3.69782        5.65258       -5.08977
C          3.95020        3.51748       -4.04105
C          4.11472        3.07499       -2.59636
H          0.05721        0.23167       -1.07701
H         -0.03830       -0.44097        0.57211
H          1.51607       -0.30633       -0.25232
H         -0.24986        1.95631        0.79865
H          1.37183        1.56861        1.37274
H          1.64064        4.84518       -1.21952
H          1.24304        4.11170       -2.78112
H          3.66044        5.92736       -2.20057
H          2.21101        6.36554       -3.13597
H          3.17986        2.92180       -4.54338
H          4.89623        3.40847       -4.57968
H          4.89956        3.65596       -2.09766
H          4.41097        2.02102       -2.56189
