26

O          1.03238       -0.42380        1.54417
S          2.38709       -0.14644        1.08935
O          3.50864       -0.24970        1.98160
O          2.69510       -1.10576       -0.18760
C          1.70492       -1.24135       -1.19168
C          2.00362       -0.24161       -2.32761
C          2.16285        1.26419       -1.95243
C          1.51861        1.69503       -0.63715
O          2.39281        1.34631        0.43788
C          1.80726        2.02048       -3.27231
Cl         2.62354        3.58381       -3.36818
C          0.37005        2.03452       -3.69115
Cl        -0.48625        3.43831       -4.15587
C          0.14358        0.81714       -4.19799
Cl        -0.95026        0.49332       -5.54240
C          1.27146       -0.29141       -3.78707
Cl        -0.29781       -1.07378       -3.10873
C          2.24147        0.95009       -4.33189
Cl         2.15265        1.43175       -6.11110
Cl         4.06866        0.58848       -4.29098
H          0.71117       -1.14514       -0.74933
H          1.79230       -2.26444       -1.58090
H          3.01614       -0.60602       -2.53774
H          3.24071        1.40927       -1.78531
H          0.51748        1.28323       -0.47764
H          1.43567        2.78530       -0.60082
