48

C          1.48277       -0.51104       -0.07167
C          1.20541        0.42953       -1.18904
C          0.52086        0.11894       -2.30222
C          0.02853        1.16644       -3.23534
O         -0.39716        0.93347       -4.33884
O         -0.02493        2.31495       -2.52901
C         -0.88902        3.42874       -2.77543
C         -1.90631        3.31209       -3.94257
C         -3.09730        4.03100       -3.35393
O         -2.69027        5.43195       -3.35465
C         -2.70679        5.99095       -2.05656
C         -2.42583        7.45228       -2.03063
C         -2.39667        8.07215       -0.83554
C         -2.08002        9.51948       -0.66046
C         -2.66656        7.22272        0.38650
O         -3.10863        7.74107        1.40990
C         -2.38867        5.69957        0.32139
C         -1.75662        5.27721       -1.04222
C         -0.27198        5.76236       -0.96212
C         -1.75142        3.73550       -1.40253
C         -1.31769        2.86109       -0.22084
C         -3.09083        3.41279       -1.97277
C         -3.76622        2.06164       -1.63458
O         -4.31308        3.35195       -1.31920
H          1.05555       -1.50093       -0.25014
H          1.03106       -0.10798        0.84215
H          2.55899       -0.60314        0.08874
H          1.52874        1.45497       -1.01262
H          0.18552       -0.88509       -2.52971
H         -0.22549        4.25465       -3.02536
H         -1.52795        3.79530       -4.84959
H         -2.19265        2.28866       -4.18793
H         -4.02668        3.91145       -3.91908
H         -3.75659        5.89952       -1.73458
H         -2.21390        7.97200       -2.95870
H         -2.58789       10.12847       -1.41489
H         -2.37448        9.89444        0.32332
H         -0.99973        9.67494       -0.76433
H         -3.34331        5.18618        0.48489
H         -1.72226        5.45497        1.15659
H         -0.16629        6.78734       -0.59627
H          0.28638        5.14868       -0.24393
H          0.26053        5.73471       -1.91169
H         -0.24704        2.96163       -0.02210
H         -1.85195        3.12464        0.69617
H         -1.51118        1.79761       -0.39438
H         -3.43525        1.44852       -2.47818
H         -3.67573        1.44260       -0.74925
