32

C          1.09648       -0.26241        0.36427
C          1.03486        0.94290       -0.55095
O          1.39021        0.56470       -1.86577
P          2.74319        1.07579       -2.59803
S          2.90273        0.27687       -4.37417
O          2.53319        2.67076       -2.71752
C          1.26733        3.30329       -2.83304
C          0.39316        2.79519       -3.96255
S          4.37381        0.64088       -1.35169
C          5.14179        1.96335       -0.42992
S          4.67027        3.67225       -0.52069
O          3.22490        3.75306       -0.42944
O          5.46568        4.37851        0.46925
C          5.21295        4.23981       -2.13207
C          6.72391        4.32669       -2.25187
H          0.54816       -1.10792       -0.06373
H          0.67347       -0.02439        1.34449
H          2.13042       -0.59031        0.50476
H          0.00544        1.31440       -0.58623
H          1.67017        1.74597       -0.17556
H          0.73737        3.23969       -1.87960
H          1.46676        4.36703       -3.00114
H          0.10793        1.75044       -3.81240
H         -0.52828        3.38286       -4.02202
H          0.91289        2.86470       -4.92226
H          5.03326        1.70479        0.62952
H          6.21645        1.92946       -0.63371
H          4.80975        3.57408       -2.89549
H          4.77299        5.23275       -2.27061
H          7.18810        3.33938       -2.17337
H          7.00360        4.75169       -3.22098
H          7.15459        4.96189       -1.47125
