45

C          0.37279       -1.19129        0.19140
C          0.15795       -1.12766       -1.30566
C          0.26650        0.25119       -2.03499
C          0.16271       -0.27299       -3.49141
C          1.41315       -1.15897       -3.35476
C          2.47736       -0.11641       -2.91148
C          1.64846        0.94884       -2.17729
C          2.23129        1.88423       -1.08460
C          2.58402        1.35499        0.30071
C          3.89302        0.58613        0.34843
C          5.05731        1.46178       -0.10328
C          4.81538        2.14037       -1.44981
O          5.06878        1.20662       -2.49264
C          3.41558        2.75148       -1.59507
C          1.01061       -2.10488       -2.18263
C          2.20177       -2.77806       -1.48480
C          0.12652       -3.26324       -2.70514
H         -0.02988       -2.13154        0.58572
H         -0.15737       -0.37706        0.69516
H          1.42484       -1.16905        0.47306
H         -0.89975       -1.41385       -1.42528
H         -0.53798        0.94322       -1.77208
H          0.26855        0.50302       -4.25819
H         -0.76482       -0.81562       -3.69412
H          1.69697       -1.69136       -4.26632
H          3.27712       -0.55301       -2.32119
H          2.93568        0.32795       -3.80374
H          1.45589        1.70237       -2.96398
H          1.41236        2.59977       -0.90627
H          2.68731        2.21858        0.97473
H          1.76347        0.79202        0.73049
H          3.84064       -0.31036       -0.26800
H          4.07669        0.24472        1.37386
H          5.96299        0.84461       -0.14845
H          5.22662        2.23278        0.65797
H          5.56117        2.93482       -1.57184
H          4.97676        1.67781       -3.33533
H          3.24037        3.05082       -2.63518
H          3.40882        3.67901       -1.00488
H          1.86153       -3.47951       -0.71393
H          2.80258       -3.34655       -2.20384
H          2.86858       -2.07534       -0.98833
H         -0.76601       -2.91618       -3.23308
H          0.68854       -3.89778       -3.40014
H         -0.21449       -3.89419       -1.87599
