23

C          0.99610       -0.15807        0.08747
C          0.49188       -0.29738        1.48962
N          0.18001        0.82154        2.15804
C         -0.24347        0.64447        3.42764
C         -0.36388       -0.57050        4.05991
N         -0.79635       -0.69053        5.34149
C         -0.86558       -1.94676        5.84118
C         -1.34353       -2.07270        7.25460
C         -0.50590       -3.04398        5.06200
C         -0.55727       -4.45935        5.55062
N         -0.07595       -2.89180        3.77965
C          0.00015       -1.66137        3.26387
N          0.42360       -1.53318        2.00581
H          0.64597        0.77743       -0.35947
H          0.63997       -0.98752       -0.53106
H          2.08991       -0.16056        0.08725
H         -0.49860        1.55714        3.95874
H         -2.25744       -2.67308        7.29735
H         -0.57212       -2.53269        7.87975
H         -1.57148       -1.08813        7.67669
H         -1.23428       -5.04219        4.91777
H          0.44204       -4.90320        5.49645
H         -0.90601       -4.54776        6.58216
