25

N          1.10218        0.01709        0.25893
S          0.52109       -0.01875        1.83221
O          1.30427        0.97086        2.53749
O         -0.91707        0.06170        1.76560
C          0.99951       -1.62330        2.39044
C          1.95669       -1.71435        3.40774
C          2.34813       -2.97501        3.87136
C          1.79835       -4.15770        3.37321
C          0.86594       -4.03984        2.33251
C          0.45332       -2.78664        1.84588
Cl        -0.69167       -2.80454        0.55270
N          2.25000       -5.43149        3.73859
C          2.93295       -5.56690        5.00380
N          4.06158       -4.67968        5.00639
S          3.61094       -3.07330        5.09411
O          2.98244       -2.84336        6.37471
O          4.74058       -2.30107        4.62916
H          0.32449        0.09204       -0.39885
H          1.79581        0.76028        0.16262
H          2.41051       -0.81979        3.83360
H          0.45732       -4.94133        1.87803
H          1.54144       -6.15129        3.60683
H          2.26079       -5.39682        5.85240
H          3.30090       -6.59430        5.09452
H          4.72913       -4.84048        4.25639
