30

O          1.28852        0.84372        0.63461
C          2.40693        0.41393        0.40651
O          3.26139        0.06619        1.39399
C          2.95519        0.18630       -0.98279
C          2.39557       -1.08827       -1.60784
C          0.92758       -0.99921       -2.05058
C          0.62234       -0.04087       -3.21118
C          1.50639       -0.12403       -4.46728
N          1.25851       -1.24850       -5.37832
C          1.44124       -2.55428       -4.95025
C          1.28694       -3.59810       -5.77287
C          0.96058       -3.38231       -7.15528
C          0.82211       -2.13823       -7.62730
C          0.98232       -0.96324       -6.72394
O          0.88192        0.16325       -7.20382
H          4.12641       -0.26528        1.09028
H          2.74869        1.07398       -1.58865
H          4.04798        0.11293       -0.92869
H          3.02505       -1.36694       -2.45955
H          2.48588       -1.91152       -0.88793
H          0.57565       -2.00297       -2.31012
H          0.30710       -0.70731       -1.19506
H         -0.42934       -0.16604       -3.49847
H          0.70627        0.98131       -2.81928
H          1.33829        0.81010       -5.01746
H          2.57208       -0.12104       -4.21773
H          1.72785       -2.71964       -3.92187
H          1.42637       -4.61490       -5.42085
H          0.85335       -4.24479       -7.80417
H          0.60286       -1.92614       -8.66531
