32

C          0.99201        0.21006        0.22037
C          0.37949        1.41626        0.91801
N          0.93849        2.64074        0.36739
C          0.01678        3.61709        0.01776
N         -1.06956        3.81885        0.75854
C         -1.91768        4.73536        0.31537
N         -3.08374        4.86272        1.04545
C         -3.90374        6.05301        0.92303
C         -5.36745        5.61495        0.88434
C         -3.65342        6.98230        2.10831
N         -1.73041        5.45474       -0.77625
C         -0.61018        5.18517       -1.43368
O         -0.43186        5.93293       -2.57908
C          0.65965        5.48509       -3.37216
N          0.29670        4.28243       -1.08886
H          0.75122        0.21771       -0.84854
H          0.60332       -0.71809        0.65012
H          2.08249        0.20587        0.31815
H         -0.71000        1.35162        0.81055
H          0.60898        1.37356        1.98842
H          1.54370        2.52428       -0.43898
H         -2.96631        4.45241        1.96219
H         -3.70490        6.60576       -0.00266
H         -5.64787        5.06995        1.79252
H         -6.03212        6.47930        0.78426
H         -5.54724        4.95023        0.03186
H         -2.60666        7.30234        2.14062
H         -4.27936        7.87848        2.03772
H         -3.87871        6.48739        3.05979
H          1.61326        5.62734       -2.85215
H          0.53043        4.44011       -3.67655
H          0.68347        6.09305       -4.28178
