40

O          1.29336       -0.66388        0.34915
C          2.42137       -0.22308        0.12042
C          3.10031       -0.68745       -1.11399
C          4.35219       -1.16446       -1.06873
C          5.04249       -1.74758       -2.19444
C          6.36046       -1.99914       -2.14863
C          7.14303       -2.66388       -3.20108
C          6.78191       -2.62887       -4.56625
C          7.55446       -3.28169       -5.53516
C          8.68333       -3.94810       -5.11412
C          9.05568       -3.97014       -3.79261
C          8.31541       -3.33574       -2.81798
O         10.19971       -4.67524       -3.58522
C         10.49198       -5.11479       -4.92766
O          9.54431       -4.63950       -5.90673
N          3.08790        0.64243        0.96594
C          4.21309        1.51083        0.61361
C          5.39612        1.26716        1.55029
C          4.97730        1.34067        3.02081
C          3.74590        0.47722        3.30434
C          2.60975        0.79785        2.33449
H          2.47605       -0.75328       -1.99652
H          4.89380       -1.15234       -0.12643
H          4.44460       -2.01432       -3.06184
H          6.92749       -1.72840       -1.25908
H          5.89572       -2.08886       -4.89088
H          7.27395       -3.26404       -6.58210
H          8.63756       -3.37855       -1.78280
H         11.49046       -4.75724       -5.20352
H         10.49343       -6.21090       -4.94358
H          3.86342        2.54540        0.72086
H          4.51002        1.39581       -0.43121
H          6.18593        1.99997        1.35141
H          5.82459        0.27727        1.35710
H          5.80938        1.01765        3.65676
H          4.75711        2.38215        3.28329
H          4.02081       -0.58069        3.20206
H          3.41323        0.62785        4.33673
H          1.75939        0.13920        2.53725
H          2.26857        1.83196        2.46070
