58

O          1.08891       -0.05017        0.12786
C          2.31658       -0.02471        0.07343
C          2.98091        0.62320       -1.08302
C          4.14735        0.09328       -1.64452
C          4.76027        0.74805       -2.71440
C          4.20692        1.91867       -3.24340
O          4.91686        2.46496       -4.29119
C          4.47236        3.63680       -4.84672
C          3.93844        3.59009       -6.13356
C          3.51349        4.76760       -6.74684
C          3.63530        5.98577       -6.07616
C          4.19614        6.03101       -4.79812
C          4.63082        4.85574       -4.18543
C          3.01347        2.41694       -2.71203
C          2.40264        1.77137       -1.63245
C          3.10864       -0.64322        1.16660
C          4.34352       -0.12007        1.56702
C          5.06467       -0.73990        2.59115
C          4.55375       -1.87600        3.23335
C          5.36187       -2.48838        4.32537
O          6.23906       -1.82737        4.87593
C          5.12773       -3.87641        4.78655
C          5.13838       -4.13072        6.16085
C          4.89561       -5.42302        6.63035
C          4.65188       -6.46871        5.73425
O          4.39519       -7.68936        6.32298
C          4.28303       -8.79551        5.51937
C          3.04096       -9.42400        5.43949
C          2.89452      -10.56454        4.65059
C          3.99154      -11.07729        3.95601
C          5.24044      -10.46246        4.06353
C          5.39254       -9.32794        4.86018
C          4.65749       -6.21260        4.35892
C          4.91787       -4.92382        3.88384
C          3.29100       -2.36115        2.86798
C          2.57535       -1.75108        1.83353
H          4.58525       -0.82808       -1.27002
H          5.67193        0.34014       -3.14536
H          3.85382        2.64024       -6.65365
H          3.09167        4.73623       -7.74796
H          3.30084        6.90292       -6.55475
H          4.29897        6.98282       -4.28350
H          5.08134        4.88968       -3.19777
H          2.53554        3.30410       -3.11751
H          1.47730        2.16895       -1.21945
H          4.75276        0.77634        1.10737
H          6.02497       -0.32533        2.89554
H          5.32688       -3.32402        6.86635
H          4.89174       -5.61417        7.70093
H          2.19171       -9.02497        5.98684
H          1.92737      -11.05552        4.57984
H          3.87507      -11.96418        3.33796
H          6.09533      -10.87062        3.53082
H          6.36604       -8.85582        4.95715
H          4.46224       -6.99862        3.63481
H          4.95218       -4.75496        2.81056
H          2.83307       -3.20151        3.38304
H          1.59674       -2.13790        1.55286
