19

C          1.02625        0.18895       -0.10762
C          0.47760        1.10970       -1.15647
O         -0.14499        0.73754       -2.14139
O          0.81420        2.41971       -0.82366
C          0.40845        3.42414       -1.71427
C         -0.92449        3.58007       -2.09346
C         -1.27306        4.61577       -2.96328
C         -0.29411        5.50184       -3.43048
C         -0.65256        6.55781       -4.33214
N         -0.94072        7.41310       -5.06157
C          1.03537        5.35513       -3.01413
C          1.38727        4.31749       -2.14820
H          0.72386       -0.83753       -0.33455
H          0.62566        0.45883        0.87258
H          2.11784        0.24008       -0.10667
H         -1.68955        2.89711       -1.73438
H         -2.31020        4.72243       -3.27609
H          1.80231        6.04447       -3.36265
H          2.41769        4.20484       -1.82254
