79

C          2.56566        1.26099       -0.36347
N          1.91678        0.64542        0.77621
C          0.64637       -0.07719        0.51149
C         -0.41355        0.47297       -0.47846
O         -1.80616        0.38642       -0.12362
C         -2.66942       -0.69794        0.23489
C         -3.21101       -1.68419       -0.84386
O         -4.30812       -1.27828       -1.65283
C         -5.69772       -1.62682       -1.58667
C         -6.26232       -3.05746       -1.45322
O         -7.62880       -2.99651       -1.94181
C         -6.35507       -3.61026       -0.02442
O         -5.22634       -4.41794        0.28601
C         -6.78374       -2.57470        1.06259
N         -6.16286       -2.82504        2.36823
C         -6.36723       -3.86825        3.18896
N         -5.46465       -4.39372        3.93617
N         -7.64247       -4.26485        3.31919
C         -6.64119       -1.05300        0.72281
O         -5.53349       -0.45120        1.41209
C         -6.55035       -0.65525       -0.75691
N         -5.99306        0.69735       -0.92501
C         -6.66005        1.86353       -0.94049
N         -6.14555        2.96985       -1.33558
N         -7.91913        1.86145       -0.47399
O         -3.30735       -2.98439       -0.29972
C         -2.74443       -3.00859        1.03238
C         -1.63305       -4.05609        1.09175
C         -2.40569       -1.57145        1.48312
O         -1.12905       -1.49890        2.11144
C         -3.29871       -1.18283        2.65646
O         -3.61597       -1.96390        3.54089
O         -0.09892        0.18549       -1.84070
C          0.15174       -1.17888       -2.16252
C          0.40649       -1.31870       -3.66342
O         -0.20966       -2.51663       -4.14763
C          1.17377       -1.89839       -1.27269
O          2.53295       -1.65498       -1.59583
C          0.87930       -1.56576        0.18624
O          1.85150       -2.15599        1.05518
H          2.02242        2.14441       -0.70539
H          2.70499        0.58425       -1.20210
H          3.56317        1.59218       -0.05423
H          2.56139       -0.02129        1.21039
H          0.20784        0.02164        1.50106
H         -0.28192        1.56150       -0.43260
H         -3.55629       -0.10788        0.45541
H         -2.45796       -1.76312       -1.60549
H         -5.98770       -1.36092       -2.61710
H         -5.71515       -3.73858       -2.11358
H         -8.00322       -3.89842       -1.92163
H         -7.16125       -4.35651       -0.01855
H         -4.47254       -4.13981       -0.27160
H         -7.86834       -2.71736        1.16456
H         -5.21698       -2.47759        2.41594
H         -4.57399       -3.90736        3.77272
H         -8.22969       -3.46229        3.50454
H         -7.67432       -4.89275        4.11809
H         -7.52118       -0.55726        1.15365
H         -5.63578        0.50483        1.19957
H         -7.56779       -0.68009       -1.16569
H         -5.09288        0.69323       -1.40395
H         -5.18452        2.81614       -1.64934
H         -8.52542        1.22604       -0.97564
H         -8.29225        2.80241       -0.58187
H         -3.52831       -3.42274        1.66381
H         -1.17442       -4.09818        2.08487
H         -2.04481       -5.04798        0.87208
H         -0.86081       -3.90252        0.33638
H         -1.13490       -0.79976        2.79535
H         -3.53143       -0.10574        2.75197
H         -0.76660       -1.70705       -1.97587
H         -0.04460       -0.48351       -4.21022
H          1.46946       -1.34330       -3.91564
H          0.25952       -3.27146       -3.75449
H          1.04353       -2.97978       -1.41012
H          3.03472       -1.98807       -0.82234
H         -0.04897       -2.08729        0.36345
H          1.41944       -2.20430        1.93193
