47

C          2.66615       -0.37100        0.04064
C          1.18685       -0.08955       -0.00664
C          0.32365       -1.20503        0.16899
C         -1.07276       -1.15324        0.00750
N         -1.88518       -2.27963        0.18189
C         -1.32033       -3.63574       -0.05949
C         -1.40139       -4.51100        1.19983
O         -2.68683       -5.12022        1.32645
C         -3.36009       -2.19798        0.02944
C         -4.05516       -1.85079        1.35583
O         -3.77474       -0.52877        1.79908
C         -1.57934        0.11714       -0.29572
C         -0.75307        1.24420       -0.44513
C          0.63616        1.16750       -0.31083
N          1.35502        2.36377       -0.55036
N          2.25209        2.55773        0.29379
C          2.90328        3.78951        0.08007
C          2.57786        4.87747        0.92112
Cl         1.30614        4.75121        2.09217
C          3.27967        6.08885        0.87739
C          4.33787        6.23660       -0.01953
N          5.11861        7.48167       -0.02996
O          4.78527        8.37225        0.76467
O          6.06229        7.55839       -0.82396
C          4.68005        5.19348       -0.88519
C          3.96625        3.97610       -0.82623
N          4.42819        2.90260       -1.71176
O          5.62951        2.91153       -2.01413
O          3.61113        2.08532       -2.14623
H          2.87948       -1.17898        0.74968
H          3.01268       -0.67941       -0.95067
H          3.26759        0.47384        0.37436
H          0.80088       -2.14112        0.44701
H         -1.86702       -4.11531       -0.88147
H         -0.28060       -3.60541       -0.39551
H         -0.67780       -5.32834        1.12318
H         -1.17961       -3.94575        2.11170
H         -3.21108       -4.55813        1.91927
H         -3.64486       -1.50142       -0.76542
H         -3.75295       -3.17090       -0.29179
H         -5.13930       -1.93397        1.23288
H         -3.75452       -2.53486        2.15389
H         -2.80420       -0.48864        1.89734
H         -2.64386        0.28809       -0.42862
H         -1.21434        2.20094       -0.68265
H          3.00613        6.89305        1.55981
H          5.50927        5.31096       -1.58429
