13

C          1.54063       -0.22832        0.20757
C          0.40824       -1.06290       -0.30867
C         -0.83287       -0.36037       -0.77433
Cl        -1.56119        0.59265        0.53577
C          0.70792       -2.44982       -0.84450
O          0.16626       -2.24954        0.46548
H          1.35028        0.09079        1.23735
H          1.67536        0.66531       -0.41027
H          2.48689       -0.77971        0.20054
H         -0.59852        0.32178       -1.59725
H         -1.59254       -1.06608       -1.12549
H          0.05497       -2.88303       -1.59262
H          1.73698       -2.78217       -0.91166
