21

C          0.64451        0.38396       -0.09642
C          0.27436        0.66438        1.34995
O          1.22146        1.46858        2.04708
C          2.55614        0.96765        2.15494
C          2.69109       -0.27388        3.02638
C          2.55520       -1.51937        2.19092
O          3.32734       -1.83294        1.29824
O          1.42860       -2.20074        2.53459
C          1.05500       -3.26191        1.65305
H          0.80042        1.31964       -0.64174
H         -0.14876       -0.18539       -0.59028
H          1.56805       -0.19465       -0.17954
H         -0.67107        1.21761        1.36193
H          0.08458       -0.25796        1.90177
H          2.99934        0.84834        1.16130
H          3.11830        1.77355        2.64112
H          3.68905       -0.31599        3.47839
H          1.95868       -0.27462        3.84017
H          1.38186       -3.08772        0.62290
H          1.45479       -4.20616        2.02949
H         -0.03777       -3.31724        1.64947
