33

O          1.41871        2.34761       -0.07361
C          1.11143        1.16557       -0.07952
C         -0.25982        0.66650       -0.04495
C         -1.43901        1.38822       -0.02599
C         -2.63480        0.66549        0.01050
C         -2.62568       -0.74330        0.02899
C         -1.42046       -1.45260        0.01509
C         -0.24835       -0.72011       -0.02427
C          1.13288       -1.20530       -0.01610
O          1.42012       -2.37932        0.13955
C          2.06685       -0.01083       -0.12521
C          2.91054        0.03307       -1.37325
N          2.71541       -0.94391       -2.29540
C          3.49828       -0.98129       -3.39045
C          3.33398       -2.00492       -4.31385
C          4.12248       -2.09049       -5.46554
C          5.09849       -1.13094       -5.70928
C          5.28601       -0.09378       -4.79819
C          4.49494       -0.01646       -3.63816
C          4.66216        1.00623       -2.69970
C          3.85889        1.03762       -1.56876
O          4.04892        2.07737       -0.70432
H         -1.43544        2.47388       -0.03883
H         -3.58578        1.19560        0.02515
H         -3.56965       -1.28529        0.05657
H         -1.40190       -2.53829        0.03409
H          2.68794        0.00699        0.77787
H          2.57648       -2.76251       -4.12657
H          3.97198       -2.90871       -6.16500
H          5.71435       -1.19154       -6.60286
H          6.05323        0.65210       -4.99323
H          5.40861        1.78195       -2.84576
H          3.17227        2.42889       -0.43311
