72

C          1.47627       -0.17519        0.24359
C          0.69224       -1.26401       -0.48916
C          1.08406       -2.64300        0.04604
C         -0.83009       -1.06224       -0.35944
C         -1.37128        0.24399       -0.95695
C         -1.03492        0.47229       -2.43221
C         -1.48958       -0.64565       -3.37019
C         -3.00866       -0.77234       -3.52773
C         -3.65285        0.33306       -4.37299
C         -3.21547        0.35592       -5.83904
O         -3.60211       -0.85770       -6.50386
C         -2.64180       -1.79902       -6.64684
O         -1.47827       -1.73913       -6.27951
C         -3.17408       -3.00106       -7.28600
C         -3.94600       -2.88633       -8.37164
C         -4.25574       -4.07276       -9.16739
O         -4.20691       -4.04756      -10.38776
O         -4.62189       -5.10717       -8.37704
C         -5.00316       -6.32041       -9.04565
C         -6.52647       -6.43515       -9.13212
C         -7.20816       -5.33239       -9.95099
C         -6.83775       -5.32647      -11.43801
C         -7.46156       -6.45628      -12.25698
C         -8.97907       -6.35809      -12.42782
C         -9.48145       -5.04913      -13.05264
C         -8.87119       -4.69770      -14.42343
C         -9.19540       -5.75425      -15.47973
C         -9.37172       -3.32634      -14.88215
H          1.18209       -0.11652        1.29680
H          1.31168        0.80646       -0.21125
H          2.55222       -0.37483        0.20270
H          0.97765       -1.23923       -1.54728
H          0.80582       -2.75665        1.09885
H          0.58728       -3.43454       -0.52540
H          2.16447       -2.80124       -0.03985
H         -1.34897       -1.91017       -0.82358
H         -1.10987       -1.09126        0.70158
H         -2.45918        0.26210       -0.82388
H         -0.99144        1.09467       -0.37955
H         -1.46818        1.42600       -2.75377
H          0.04957        0.59281       -2.54064
H         -1.01772       -0.46322       -4.33781
H         -1.09156       -1.60860       -3.03194
H         -3.23868       -1.74650       -3.97456
H         -3.48747       -0.78746       -2.54253
H         -4.73893        0.17888       -4.34135
H         -3.45874        1.31213       -3.92220
H         -3.74042        1.17034       -6.35083
H         -2.14626        0.56400       -5.95178
H         -2.77994       -3.94603       -6.93325
H         -4.23399       -1.93391       -8.79909
H         -4.52151       -6.41965      -10.02411
H         -4.62179       -7.14490       -8.43282
H         -6.79306       -7.41931       -9.53191
H         -6.93260       -6.38570       -8.11381
H         -8.29344       -5.42703       -9.83566
H         -6.95680       -4.35673       -9.51919
H         -7.11251       -4.35487      -11.86298
H         -5.75561       -5.39984      -11.56381
H         -6.98707       -6.46739      -13.24547
H         -7.21507       -7.42310      -11.80401
H         -9.31454       -7.20565      -13.03644
H         -9.46484       -6.48664      -11.45363
H        -10.57283       -5.11634      -13.14889
H         -9.29832       -4.22476      -12.35226
H         -7.78106       -4.62594      -14.33317
H        -10.27605       -5.90940      -15.56559
H         -8.81707       -5.45254      -16.46209
H         -8.73171       -6.71491      -15.23535
H         -9.07528       -2.54886      -14.16974
H         -8.94582       -3.06239      -15.85613
H        -10.46280       -3.30879      -14.97148
