49

C          0.91775        0.10498        0.04244
C          0.42829       -1.33696        0.30968
C          1.02597       -1.76520        1.66907
C         -1.10997       -1.28978        0.42393
C          0.81799       -2.34291       -0.78892
C          0.55285       -3.71147       -0.62261
C          0.87106       -4.69247       -1.59019
C          0.51641       -6.16526       -1.25959
C          1.31890       -6.60619       -0.01206
C         -0.99811       -6.27910       -0.95177
C          0.80198       -7.21577       -2.35615
C          1.48930       -4.23462       -2.77249
O          1.86888       -5.15149       -3.70495
C          1.75938       -2.87136       -3.01993
C          2.39973       -2.29247       -4.30911
C          1.44831       -1.23900       -4.93095
C          3.73960       -1.60938       -3.94449
C          2.71622       -3.29370       -5.44276
C          1.41339       -1.95669       -1.99572
H          0.64244        0.77479        0.86604
H          0.47302        0.52313       -0.86798
H          2.00862        0.14613       -0.05905
H          0.80083       -1.02821        2.44909
H          0.62752       -2.72358        2.01848
H          2.11619       -1.86303        1.60707
H         -1.56756       -0.99781       -0.52892
H         -1.53195       -2.26099        0.70579
H         -1.42855       -0.56549        1.18254
H          0.07375       -4.02804        0.30132
H          1.07487       -6.01136        0.87474
H          1.11412       -7.65296        0.24172
H          2.39739       -6.50996       -0.18565
H         -1.59741       -5.92775       -1.80007
H         -1.28434       -7.31809       -0.74896
H         -1.29713       -5.69835       -0.07317
H          0.26500       -6.99003       -3.28414
H          1.87227       -7.30052       -2.57257
H          0.47617       -8.21447       -2.03863
H          2.76675       -5.41941       -3.44278
H          1.27623       -0.38184       -4.27188
H          1.85897       -0.83593       -5.86445
H          0.47128       -1.68087       -5.16011
H          4.42614       -2.32129       -3.47093
H          4.23648       -1.20974       -4.83641
H          3.60831       -0.77013       -3.25312
H          3.46886       -4.02947       -5.13964
H          1.81702       -3.81927       -5.78305
H          3.12940       -2.77819       -6.31905
H          1.62097       -0.90361       -2.16189
