23

Br         3.14571       -1.20019        0.16398
C          1.36917       -0.56942        0.03173
C          1.08308        0.75479        0.33288
C         -0.23285        1.21165        0.22496
Br        -0.55009        3.04308        0.64299
C         -1.28003        0.35761       -0.18169
O         -2.51244        0.96860       -0.28315
C         -3.67440        0.29406        0.00210
C         -4.61545        0.32865       -1.03667
C         -5.83785       -0.31502       -0.89154
Br        -7.08198       -0.29355       -2.31286
C         -6.14433       -0.97895        0.29067
C         -5.22883       -0.97346        1.35176
Br        -5.76757       -1.89706        2.92724
C         -3.99118       -0.31592        1.22761
Br        -2.79368       -0.19962        2.70666
C         -0.96004       -0.96893       -0.51910
Br        -2.17839       -2.23752       -1.24409
C          0.36004       -1.42974       -0.39095
H          1.87677        1.42996        0.64313
H         -4.37043        0.84527       -1.96205
H         -7.09924       -1.49029        0.39140
H          0.60608       -2.45968       -0.64275
