21

C          1.03411       -0.17103        0.57282
O          0.36865        1.09285        0.55835
C          1.06301        2.11733        1.12320
O          2.11022        2.01537        1.74358
C          0.37772        3.42575        0.82612
C          1.02735        4.11487       -0.36055
C          0.40871        3.69235       -1.68290
O         -0.47047        4.38774       -2.20253
C          0.79456        2.35545       -2.30924
N          2.20326        2.02575       -2.07945
H          0.67441       -0.74283       -0.28792
H          0.77551       -0.71061        1.48684
H          2.11989       -0.07071        0.47565
H         -0.69671        3.26636        0.68266
H          0.48281        4.04579        1.72488
H          0.85885        5.19641       -0.27563
H          2.11302        3.98273       -0.38870
H          0.14840        1.57844       -1.89420
H          0.61283        2.40821       -3.38731
H          2.39144        1.09403       -2.45036
H          2.79189        2.65860       -2.62335
