17

O          1.61985       -0.34025        1.01697
N          2.22442        0.08492        0.02851
C          2.79937       -0.99371       -0.83313
C          2.33936       -2.41518       -0.52680
C          2.76636       -3.20582       -1.76186
C          2.85551       -2.19739       -2.91546
C          2.48965       -0.82953       -2.32284
N          1.06166       -0.42141       -2.59037
O          0.28968       -1.36960       -2.76547
H          3.88567       -0.92960       -0.68489
H          2.79206       -2.81496        0.38671
H          1.25053       -2.47584       -0.40724
H          2.06086       -4.01359       -1.98064
H          3.74875       -3.66430       -1.59769
H          2.23384       -2.49821       -3.76561
H          3.89067       -2.17378       -3.27865
H          3.09222       -0.03612       -2.77936
