10

C          1.05089        0.05812        0.05344
C          0.37296       -1.12181        0.65225
C         -0.69888       -1.87415       -0.09061
O          0.64996       -2.36000       -0.01270
H          0.62700        0.98146        0.46007
H          0.94325        0.08571       -1.03572
H          2.11915        0.04038        0.29053
H          0.37109       -1.11836        1.73329
H         -1.45069       -2.39974        0.48429
H         -1.03906       -1.50080       -1.04795
