50

O          1.03632       -0.58115        0.52961
C          2.21931       -0.46929        0.23120
O          3.07590        0.26706        0.98281
C          4.50808        0.60667        0.87635
C          4.80193        1.41261        2.15986
C          6.28392        1.63452        2.45391
C          7.05234        0.32128        2.45403
C          6.89687       -0.35964        1.10825
C          5.43052       -0.61080        0.78322
C          2.75873       -1.28691       -0.86354
C          3.42099       -2.46447       -0.46611
C          4.11331       -3.24356       -1.39111
C          4.08787       -2.89227       -2.73281
C          3.30003       -1.81707       -3.14966
C          2.58647       -1.02080       -2.22696
C          1.62023       -0.06122       -2.83819
O          1.46212       -0.00687       -4.04957
O          0.90485        0.63603       -1.93191
C         -0.27551        1.30595       -2.42643
C         -1.51331        0.54210       -1.94264
C         -2.80676        1.26241       -2.31673
C         -2.80834        2.71082       -1.83344
C         -1.56756        3.46696       -2.30280
C         -0.28370        2.74215       -1.90573
H          4.63629        1.25684        0.00298
H          4.29121        2.38196        2.10595
H          4.34929        0.89516        3.01706
H          6.39744        2.11941        3.43026
H          6.71403        2.31191        1.70685
H          6.67730       -0.33527        3.24958
H          8.11327        0.50060        2.65982
H          7.43376       -1.31593        1.11136
H          7.35080        0.25663        0.32304
H          5.05783       -1.39920        1.44601
H          5.41496       -0.98720       -0.24095
H          3.44617       -2.74373        0.58654
H          4.68722       -4.10510       -1.05859
H          4.64218       -3.47666       -3.46347
H          3.22432       -1.61806       -4.21917
H         -0.29282        1.34193       -3.52316
H         -1.51477       -0.46976       -2.36566
H         -1.46483        0.40934       -0.85419
H         -3.66422        0.73103       -1.88780
H         -2.93365        1.24241       -3.40626
H         -2.85146        2.72839       -0.73758
H         -3.70941        3.21905       -2.19585
H         -1.56872        4.47733       -1.87935
H         -1.60207        3.57819       -3.39397
H         -0.17230        2.74404       -0.81417
H          0.58718        3.27996       -2.29855
