27

C          0.97310        0.13709       -0.17390
C          0.62820       -1.32542       -0.41136
C          1.06111       -2.24806        0.73168
C          0.42679       -1.95054        2.09520
C         -1.10324       -2.02384        2.13571
C         -1.69916       -3.39944        1.81815
C         -1.29355       -4.52663        2.77622
C         -1.67487       -4.29699        4.23579
O         -3.08275       -4.18607        4.38549
H          0.41901        0.54866        0.67473
H          0.71622        0.73233       -1.05605
H          2.04363        0.26152        0.01780
H         -0.44676       -1.42314       -0.59709
H          1.13018       -1.65481       -1.32924
H          0.84737       -3.28463        0.44618
H          2.15143       -2.18499        0.83948
H          0.84668       -2.64398        2.83319
H          0.73504       -0.95178        2.42620
H         -1.44078       -1.70149        3.12755
H         -1.52291       -1.29249        1.43534
H         -2.79224       -3.30947        1.81147
H         -1.42241       -3.69234        0.79857
H         -1.78725       -5.44355        2.43018
H         -0.21499       -4.70543        2.70859
H         -1.34755       -5.15068        4.83788
H         -1.20077       -3.40330        4.65215
H         -3.35989       -3.35009        3.97357
