60

O          1.11053        0.42321       -0.15523
C          2.33351        0.32971       -0.19715
C          3.10129        0.99526       -1.27460
C          4.20657        0.36909       -1.86445
C          4.88710        0.99996       -2.90557
C          4.46209        2.24808       -3.36047
C          3.35131        2.86528       -2.78330
C          2.66373        2.23668       -1.74472
C          3.00578       -0.53345        0.79576
C          4.20722       -0.14806        1.39595
C          4.83002       -1.01032        2.30306
C          4.26629       -2.25462        2.61371
O          4.97901       -2.98978        3.51647
C          4.45786       -4.25152        3.96566
C          3.63671       -4.05721        5.25751
O          2.28015       -3.75151        4.90522
C          3.64775       -5.31889        6.14533
O          4.56961       -5.21715        7.25564
C          5.86098       -5.42611        6.86426
C          6.42040       -6.69409        6.92178
C          7.71808       -6.88988        6.43494
C          8.44867       -5.83427        5.84893
C          9.77191       -6.19272        5.24474
O         10.19266       -7.34601        5.34178
C         10.57939       -5.25544        4.43835
C         10.85390       -5.60239        3.11065
C         11.56499       -4.72187        2.29541
C         12.00657       -3.50156        2.80800
C         11.77457       -3.17740        4.14570
C         11.08513       -4.06706        4.97149
C          7.85212       -4.56744        5.81546
O          8.41088       -3.50654        5.16625
C          6.60568       -4.34924        6.40016
C          3.06322       -2.62634        2.01587
C          2.42532       -1.75766        1.13396
O          1.22277       -2.17006        0.62624
H          4.53185       -0.61837       -1.54618
H          5.73971        0.51207       -3.37190
H          4.98977        2.73518       -4.17710
H          3.01439        3.83164       -3.15029
H          1.78767        2.71191       -1.30843
H          4.66059        0.81595        1.17794
H          5.76391       -0.70693        2.77225
H          3.90344       -4.78272        3.18647
H          5.33943       -4.86963        4.14992
H          4.00568       -3.19546        5.82475
H          2.27265       -2.83339        4.57614
H          2.65797       -5.44895        6.59866
H          3.83352       -6.23147        5.56325
H          5.85546       -7.53003        7.32511
H          8.14475       -7.89194        6.47624
H         10.50807       -6.55360        2.71282
H         11.76893       -4.98523        1.26094
H         12.53929       -2.80486        2.16573
H         12.11980       -2.22673        4.54340
H         10.90149       -3.80650        6.01030
H          7.70960       -2.89046        4.88984
H          6.18010       -3.35139        6.42837
H          2.57535       -3.57358        2.21717
H          0.77301       -1.38341        0.24361
