36

C         -3.10723       -0.33928        0.00050
C         -1.63685       -0.04094       -0.00375
C         -0.71409       -1.09106        0.03083
C          0.66537       -0.84246        0.02895
C          1.60793       -2.01312        0.04481
C          1.11304        0.48581       -0.00884
O          2.47049        0.68468       -0.00386
C          0.21097        1.56916       -0.06730
C          0.65138        2.97886       -0.15405
C          0.28950        3.87737        0.86789
C          0.70061        5.21637        0.84696
C          0.31125        6.16348        1.94353
C          1.50131        5.66529       -0.20793
C          1.87969        4.80348       -1.24660
C          2.75960        5.33839       -2.34147
C          1.44121        3.47201       -1.21412
O          1.82975        2.66409       -2.25265
C         -1.16650        1.27741       -0.05963
H         -3.38197       -0.89132       -0.90397
H         -3.36812       -0.93696        0.88010
H         -3.70422        0.57790        0.03229
H         -1.07213       -2.11940        0.05912
H          1.38929       -2.65957        0.90112
H          1.49498       -2.59209       -0.87788
H          2.65677       -1.71309        0.12258
H          2.66184        1.63517        0.08120
H         -0.31553        3.52127        1.70114
H          1.20176        6.50103        2.48327
H         -0.20677        7.03256        1.52479
H         -0.36281        5.68969        2.66449
H          1.83743        6.70127       -0.22338
H          2.29861        6.22158       -2.79583
H          3.73545        5.61671       -1.92969
H          2.93123        4.61259       -3.14140
H          1.37969        1.80382       -2.18433
H         -1.88483        2.09515       -0.10946
