23

C          1.00160        0.24332        0.09608
C          0.57462       -1.22052        0.26227
N          1.02338       -1.65769        1.63608
O          1.91290       -2.51464        1.58194
C         -0.95682       -1.41699        0.12317
N         -1.40055       -0.97708       -1.25363
O         -2.10752        0.03718       -1.21512
C         -1.46070       -2.83979        0.34758
C         -2.60812       -3.05066        1.13310
C         -3.10208       -4.33896        1.34694
C         -2.46170       -5.43526        0.77577
C         -1.33168       -5.24443       -0.01534
C         -0.83678       -3.95667       -0.23419
H          0.48154        0.89602        0.80689
H          0.79543        0.60863       -0.91494
H          2.07803        0.35966        0.26937
H          1.11729       -1.82147       -0.47878
H         -1.45298       -0.75696        0.84993
H         -3.13203       -2.20982        1.58399
H         -3.98915       -4.48631        1.95782
H         -2.84580       -6.43813        0.94307
H         -0.83501       -6.10025       -0.46584
H          0.04016       -3.84344       -0.86717
