15

O          1.03761       -0.36492       -0.02685
C          2.23037       -0.10082       -0.07286
O          3.13481       -0.76682        0.67383
C          2.81488        0.97361       -0.95032
C          2.46547        0.73342       -2.41711
S          0.72144        1.10790       -2.83426
C          3.37783        1.56316       -3.29627
O          4.17732        1.12427       -4.10854
O          3.28104        2.89292       -3.09057
H          4.06246       -0.48026        0.58235
H          2.47179        1.94941       -0.58751
H          3.90617        0.97514       -0.83505
H          2.63605       -0.31939       -2.67240
H          0.17580        0.30684       -1.89905
H          3.85665        3.29568       -3.77457
