12

N          3.12279        0.00038       -0.00000
C          1.96247        0.00033       -0.00000
C          0.53033        0.00015        0.00000
C         -0.16923       -1.20550        0.00020
C         -1.55123       -1.15270       -0.00017
N         -2.25440       -0.00030       -0.00000
C         -1.55161        1.15233        0.00017
C         -0.16962        1.20559       -0.00020
H          0.34234       -2.16259        0.00054
H         -2.14903       -2.06021       -0.00066
H         -2.14971        2.05965        0.00066
H          0.34163        2.16285       -0.00054
