39

C          1.45006        0.06190        0.27140
C          0.82271        1.43718        0.43733
C          1.05533        2.35990       -0.76247
C          0.30561        1.95009       -2.02800
O         -1.10720        1.94799       -1.77174
C         -1.74351        0.73751       -1.83085
O         -1.17569       -0.31965       -2.09125
C         -3.25948        0.88915       -1.49879
O         -3.53717        1.51043       -0.24884
C         -3.99637        1.68319       -2.57859
C         -3.86398        3.02724       -2.90197
C         -4.66382        3.54289       -3.92148
C         -5.58078        2.72109       -4.59642
C         -5.72388        1.37201       -4.25506
C         -4.93464        0.85972       -3.23864
C         -4.91209       -0.45789       -2.63987
C         -5.63899       -1.59834       -2.93850
C         -5.42311       -2.74866       -2.17164
C         -4.49823       -2.74884       -1.11472
C         -3.76503       -1.60157       -0.81123
C         -3.97341       -0.46734       -1.58657
H          1.05421       -0.46632       -0.59946
H          1.24466       -0.55187        1.15439
H          2.53606        0.14025        0.16015
H         -0.24945        1.33045        0.63589
H          1.25709        1.90862        1.32692
H          0.72069        3.36462       -0.47589
H          2.12763        2.42634       -0.98000
H          0.48444        2.69734       -2.80915
H          0.67611        0.99649       -2.41804
H         -4.24105        0.99444        0.17736
H         -3.16662        3.66478       -2.36614
H         -4.58179        4.59337       -4.19095
H         -6.19693        3.14427       -5.38638
H         -6.45012        0.75335       -4.77128
H         -6.35678       -1.61288       -3.75173
H         -5.97406       -3.65840       -2.39986
H         -4.34080       -3.65810       -0.53854
H         -3.02959       -1.61083       -0.01207
