36

O          1.10504        0.42680       -0.06732
C          2.28006        0.09610       -0.04692
O          3.02997        0.05352       -1.17546
C          3.08007       -0.22649        1.20712
N          2.72489        0.66473        2.31124
C          3.03368        1.91087        2.29806
O          3.66504        2.54059        1.28819
C          2.74731        2.83501        3.46264
N          1.38376        2.62647        3.93868
S          0.75563        3.63403        5.10290
O          1.20248        4.97695        4.80667
O         -0.64446        3.30402        5.24030
C          1.57568        3.07931        6.57359
C          1.53518        1.72537        6.90847
C          2.21257        1.28055        8.04405
C          2.92743        2.18102        8.85232
C          3.61521        1.74608        9.99606
C          4.31778        2.65096       10.79369
C          4.34127        4.00183       10.45949
C          3.66499        4.45191        9.32467
C          2.95563        3.55505        8.51025
C          2.27627        3.99430        7.36443
H          3.93994       -0.28363       -1.06672
H          2.85533       -1.26123        1.48625
H          4.15657       -0.16695        1.01375
H          3.64379        2.05735        0.45281
H          3.46805        2.61352        4.25539
H          2.88036        3.86898        3.13081
H          0.72102        2.10102        3.36775
H          0.98505        1.01848        6.29162
H          2.17839        0.22269        8.29640
H          3.60742        0.69515       10.27670
H          4.84424        2.30026       11.67765
H          4.88488        4.70737       11.08266
H          3.69445        5.51219        9.08195
H          2.29276        5.04764        7.09041
