14

N          1.04968       -0.06139        0.01024
C          2.20913       -0.03403        0.01139
C          3.64612       -0.00314        0.01322
C          4.32782        1.22637        0.01408
Cl         3.41858        2.71181        0.01239
C          5.73546        1.25602        0.01643
Cl         6.57552        2.78044        0.01658
C          6.46225        0.05015        0.01864
Cl         8.20369        0.07488        0.02262
C          5.78692       -1.18287        0.01779
C          6.52834       -2.41421        0.02062
N          7.12449       -3.40904        0.02322
C          4.38003       -1.20363        0.01461
Cl         3.53946       -2.72899        0.01219
