35

C          1.13515        0.06205       -0.00638
N          0.58130        0.85829       -1.09677
C         -0.89372        0.81417       -1.11430
C         -1.40205       -0.45604       -1.84782
C         -2.93926       -0.58142       -1.82184
C         -3.57764        0.75211       -1.98631
N         -4.91904        0.96948       -2.12467
C         -5.17016        2.32549       -2.15225
C         -6.38457        3.01304       -2.24249
C         -6.34462        4.41417       -2.23245
C         -5.13114        5.10681       -2.14358
C         -5.04248        6.59711       -2.11777
N         -6.19348        7.32919       -2.20771
O         -3.96564        7.17541       -2.01637
C         -3.92364        4.38951       -2.06130
C         -3.94031        2.98076       -2.05922
C         -2.94122        1.97489       -1.95766
C         -1.46090        2.08943       -1.80672
H          0.84805       -0.99075       -0.07882
H          0.82119        0.45155        0.96796
H          2.22797        0.10585       -0.04527
H          0.88949        1.82316       -0.97200
H         -1.27379        0.80663       -0.08253
H         -1.06488       -0.42487       -2.89320
H         -0.97517       -1.36578       -1.41034
H         -3.26739       -1.26990       -2.60845
H         -3.24978       -1.00598       -0.85965
H         -5.62987        0.25230       -2.16581
H         -7.33030        2.48445       -2.30837
H         -7.29270        4.93665       -2.29137
H         -6.08973        8.33559       -2.19145
H         -7.12104        6.95252       -2.30923
H         -2.97574        4.91707       -1.98727
H         -1.20557        2.97800       -1.21744
H         -1.01352        2.21184       -2.80179
