22

Cl         1.07172       -0.04263       -0.06742
C          2.79909       -0.04266       -0.07057
C          3.44810       -1.28096       -0.07196
C          4.84054       -1.33043       -0.07442
C          5.58507       -0.15715       -0.07560
C          4.94702        1.08153       -0.07427
C          3.55013        1.14110       -0.07172
Cl         2.81400        2.70378       -0.07004
O          6.95344       -0.16784       -0.07802
C          7.55751       -1.40482       -0.07868
C          8.95838       -1.45852       -0.08061
Cl         9.85074        0.03276       -0.08216
C          9.61322       -2.70271       -0.08122
Cl        11.35298       -2.76773       -0.08355
C          8.85814       -3.89215       -0.07992
Cl         9.65706       -5.43898       -0.08059
C          7.45365       -3.82887       -0.07804
Cl         6.48361       -5.27085       -0.07638
C          6.80909       -2.58396       -0.07743
O          5.43272       -2.56397       -0.07556
H          2.87498       -2.20490       -0.07107
H          5.53862        1.99375       -0.07518
