23

O          1.58775        0.46361        0.95194
C          2.67483        0.45412        0.39918
O          3.58131       -0.51960        0.60794
C          3.10563        1.49344       -0.59180
C          2.70732        1.17003       -2.01596
S          0.96975        1.28710       -2.41410
O          0.46497        2.46851       -1.73924
O          0.88406        1.21556       -3.86287
C          0.06856       -0.12324       -1.78283
C          0.33290       -1.43802       -2.48542
C          1.64296       -2.05345       -2.11243
O          1.92226       -2.57759       -1.04809
O          2.56559       -1.96387       -3.08385
H          4.43784       -0.42303        0.15405
H          2.70874        2.45990       -0.26497
H          4.19715        1.58835       -0.53364
H          3.17388        1.92663       -2.66208
H          3.09251        0.21066       -2.34797
H          0.19432       -0.19122       -0.70729
H         -0.98423        0.13864       -1.95321
H         -0.43654       -2.16466       -2.19504
H          0.26482       -1.34579       -3.57383
H          3.33094       -2.47560       -2.74436
