49

C          2.77025       -0.73684       -0.81919
N          1.34135       -1.00241       -0.96897
C          0.58369        0.25565       -1.05617
C         -0.93650        0.01434       -1.09208
N         -1.45733       -0.73884        0.05119
C         -1.75040        0.04377        1.25828
C         -0.60606        0.48496        2.18262
C         -0.43996        1.99032        2.45338
N         -1.68731        2.77102        2.67275
C         -1.80921        3.87318        1.76397
C         -1.68697        3.65674        0.37419
C         -1.84566        4.68700       -0.55963
C         -2.13881        5.96492       -0.12699
C         -2.26389        6.21602        1.23861
C         -2.10092        5.17975        2.18166
S         -2.20712        5.64826        3.89126
C         -2.34401        4.06709        4.69208
C         -2.71620        4.09632        6.05006
C         -2.86556        2.91685        6.77360
C         -2.66237        1.70239        6.14197
C         -2.28711        1.66803        4.79335
C         -2.08401        2.84499        4.04398
C         -0.69327       -1.97976        0.23125
C          0.85077       -1.87032        0.11899
H          3.14012       -0.12599       -1.65032
H          2.99493       -0.21045        0.11650
H          3.33966       -1.67221       -0.83318
H          0.83430        0.92686       -0.22753
H          0.86491        0.77942       -1.97813
H         -1.17106       -0.55322       -2.00345
H         -1.47279        0.95877       -1.21672
H         -2.39046        0.88617        0.98175
H         -2.41743       -0.58355        1.86700
H         -0.70435       -0.05315        3.13187
H          0.35954        0.14553        1.80918
H          0.22978        2.11234        3.31836
H          0.15036        2.40354        1.62427
H         -1.48193        2.66913       -0.00331
H         -1.74843        4.47239       -1.62223
H         -2.27288        6.77277       -0.84392
H         -2.48786        7.22473        1.56762
H         -2.89785        5.04459        6.54777
H         -3.15904        2.95337        7.81993
H         -2.80843        0.77226        6.68632
H         -2.20327        0.69498        4.33039
H         -1.02622       -2.66821       -0.55824
H         -0.96406       -2.47148        1.17364
H          1.24681       -2.88120       -0.04256
H          1.25230       -1.54118        1.08337
