52

C          1.10761       -0.44174       -0.24100
C          1.01079       -0.26197        1.26526
C          1.82568        0.92533        1.78627
C          1.43000        2.30258        1.23609
C         -0.04853        2.65759        1.38284
C         -0.51782        2.72254        2.84020
C         -0.69022        4.14191        3.38918
C         -1.74645        5.04997        2.74285
O         -3.11219        4.73397        2.95829
P         -3.75825        3.34550        2.44870
O         -3.02240        2.69378        1.32000
O         -3.95009        2.44290        3.78767
C         -3.39978        2.76802        4.99849
C         -2.48546        1.88034        5.56644
C         -1.83271        2.21675        6.75476
C         -2.11965        3.42475        7.39050
C         -3.07312        4.28691        6.84825
C         -3.72388        3.95335        5.65773
O         -5.28617        3.75013        2.06758
C         -5.77396        3.28636        0.87275
C         -6.52366        2.11298        0.83492
C         -6.97124        1.62306       -0.39507
C         -6.67164        2.30836       -1.57442
C         -5.92088        3.48337       -1.52722
C         -5.47440        3.97703       -0.30086
H          0.61453        0.37621       -0.77456
H          0.62092       -1.37530       -0.54075
H          2.15257       -0.48504       -0.56322
H         -0.04118       -0.17013        1.55883
H          1.38283       -1.17239        1.75034
H          1.76011        0.93114        2.88003
H          2.88496        0.75863        1.55727
H          2.03071        3.06995        1.73882
H          1.69423        2.35359        0.17315
H         -0.23621        3.60551        0.86750
H         -0.64103        1.91056        0.84225
H         -1.43887        2.15080        2.94155
H          0.18047        2.19884        3.49907
H         -0.89820        4.06637        4.46016
H          0.28223        4.64352        3.30896
H         -1.61537        6.03647        3.20701
H         -1.57000        5.19579        1.67497
H         -2.24072        0.94918        5.06261
H         -1.08813        1.54562        7.17584
H         -1.60081        3.69430        8.30747
H         -3.29985        5.22636        7.34659
H         -4.45357        4.64046        5.23870
H         -6.74254        1.56523        1.74642
H         -7.54512        0.70058       -0.43890
H         -7.01577        1.92283       -2.53129
H         -5.67285        4.00714       -2.44678
H         -4.87015        4.87853       -0.26933
