32

N          0.87824        0.05457        0.17180
C          0.23853       -0.53932        1.25045
N          0.62984       -0.20190        2.49709
C         -0.03505       -0.75232        3.53231
Cl         0.50449       -0.28119        5.08679
N         -1.07217       -1.62189        3.52862
C         -1.37996       -1.96080        2.26434
C         -0.79601       -1.47943        1.10002
N         -1.38106       -2.04293       -0.01264
C         -2.31412       -2.83983        0.46510
N         -2.35503       -2.81900        1.83541
C         -3.29089       -3.55902        2.64614
O         -2.57543       -4.39806        3.57600
C         -3.53083       -4.72554        4.60104
C         -2.83246       -5.29033        5.83469
O         -3.75973       -5.50337        6.89088
C         -4.31922       -3.43430        4.83723
O         -3.72488       -2.62875        5.85889
C         -4.31105       -2.74471        3.46635
O         -4.05908       -1.34507        3.55650
H          0.76681       -0.43987       -0.70622
H          1.79002        0.42841        0.39794
H         -2.98301       -3.44456       -0.13405
H         -3.83416       -4.24445        1.98228
H         -4.20740       -5.48650        4.18895
H         -2.36055       -6.24775        5.58963
H         -2.02818       -4.63372        6.18547
H         -3.98658       -4.62076        7.24491
H         -5.34051       -3.66087        5.16193
H         -2.81267       -2.40888        5.59605
H         -5.29064       -2.84747        2.98657
H         -3.18879       -1.20935        3.97840
