30

C          0.98169        0.06676        0.19735
C          0.54548        1.52764        0.22554
C          1.03028        2.36578       -0.97541
C          0.55794        1.79228       -2.31555
C          0.52361        3.79016       -0.81788
N          0.10328        4.97180       -0.68718
N          2.53590        2.41491       -0.92227
N          3.10139        2.98877       -1.88938
C          4.60573        3.01754       -1.86232
C          5.10306        3.61321       -0.54115
C          5.11239        1.59316       -2.01985
N          5.53272        0.41151       -2.15054
C          5.08166        3.89246       -3.04196
C          4.61081        3.42240       -4.41673
H          0.54612       -0.46600       -0.65298
H          0.64631       -0.43966        1.10836
H          2.07070       -0.02609        0.14524
H         -0.55058        1.56093        0.28276
H          0.91464        1.97512        1.15829
H         -0.52821        1.64617       -2.32151
H          0.79582        2.46502       -3.14854
H          1.03592        0.83172       -2.53503
H          4.81447        2.99643        0.31796
H          6.19641        3.69115       -0.52880
H          4.68901        4.61504       -0.38043
H          4.72485        4.92067       -2.89833
H          6.17852        3.93698       -3.05219
H          3.51869        3.40265       -4.48256
H          4.97748        4.10666       -5.18895
H          4.99010        2.42386       -4.65365
