21

C          1.12852        0.07756        0.00376
C          0.62977        1.35175       -0.57712
N         -0.14038        1.44270       -1.64577
C         -0.37441        2.78010       -1.83449
C          0.25030        3.50629       -0.85729
N          0.24645        4.91376       -0.68317
O          0.18727        5.34317        0.47246
O          0.23919        5.59316       -1.71877
N          0.92876        2.60923       -0.07433
C          1.88161        2.87900        0.99249
C          3.27778        3.15296        0.44057
O          3.29731        4.40566       -0.23361
H          0.77188       -0.77466       -0.58329
H          0.76676       -0.04658        1.02910
H          2.22230        0.05064        0.00630
H         -0.98574        3.13836       -2.65300
H          1.51281        3.71664        1.58736
H          1.90338        2.00575        1.65244
H          3.99957        3.20570        1.26139
H          3.60144        2.36738       -0.25102
H          3.66409        4.26851       -1.12566
