31

C          2.47910       -0.05864        0.03226
C          0.98042        0.01304        0.00893
C          0.22806       -1.16145       -0.10765
C         -1.16586       -1.10522       -0.14384
C         -1.82015        0.12949       -0.05417
S         -3.59112        0.09357       -0.09904
O         -4.01611       -0.44322       -1.37730
O         -4.02271       -0.50608        1.15212
N         -4.17918        1.67676       -0.05102
C         -4.96511        2.17758        0.95773
C         -5.25640        3.47506        0.61787
Br        -6.30286        4.66697        1.61850
C         -4.63064        3.78421       -0.61501
C         -4.53786        4.91573       -1.44581
C         -3.77996        4.79869       -2.60388
F         -3.65074        5.84742       -3.42603
C         -3.15249        3.59968       -2.89542
N         -3.20290        2.48340       -2.13032
C         -3.95932        2.62331       -1.02016
C         -1.08006        1.30349        0.09179
C          0.31695        1.24177        0.11243
H          2.81668       -0.60064        0.92123
H          2.84624       -0.57020       -0.86346
H          2.92848        0.93967        0.05258
H          0.72507       -2.12722       -0.17511
H         -1.73735       -2.02704       -0.23905
H         -5.25518        1.57220        1.80771
H         -5.02828        5.85181       -1.20250
H         -2.55830        3.50938       -3.80102
H         -1.54425        2.27890        0.18142
H          0.88637        2.16465        0.20656
