24

C          1.25518        0.02188        0.21949
C          0.52970        1.20016        0.85549
C          1.25518        2.51867        0.62234
O         -0.87335        1.23828        0.61917
C         -1.50297        1.44275       -0.64804
C         -1.21627        2.81686       -1.25917
C         -1.21626        0.33057       -1.66033
C         -3.00701        1.38854       -0.31212
H          1.46412        0.19541       -0.83883
H          0.66712       -0.89681        0.30632
H          2.22210       -0.14032        0.70837
H          0.58908        1.02554        1.93773
H          1.46412        2.68679       -0.43686
H          0.66711        3.36343        0.99370
H          2.22210        2.51888        1.13742
H         -0.21577        2.86303       -1.69633
H         -1.91862        3.04762       -2.06837
H         -1.28801        3.60867       -0.50614
H         -1.28800       -0.65789       -1.19454
H         -1.91861        0.36601       -2.50104
H         -0.21576        0.42424       -2.08982
H         -3.26976        0.42575        0.14233
H         -3.26976        2.15954        0.42208
H         -3.63248        1.53176       -1.19981
