16

S          3.10812        0.00608       -0.09988
C          1.46053        0.00345       -0.06054
N          0.63404       -1.12618       -0.03945
C         -0.69139       -0.69760       -0.00706
C         -1.85208       -1.43266        0.02303
C         -3.05072       -0.71068        0.05293
C         -3.05301        0.70318        0.05159
C         -1.85671        1.42899        0.02033
C         -0.69365        0.69763       -0.00837
N          0.63038        1.13044       -0.04157
H          0.95681       -2.08137       -0.04593
H         -1.84664       -2.51537        0.02407
H         -3.99883       -1.24445        0.07787
H         -4.00284        1.23393        0.07551
H         -1.85478        2.51171        0.01931
H          0.95006        2.08666       -0.04983
