27

C         -2.51740        0.70750        0.23294
C         -2.49642       -0.74084       -0.24836
C         -1.22390       -1.46729        0.18639
C          0.03048       -0.70831       -0.26642
N          1.23246       -1.41297        0.19649
C          2.45203       -0.74269       -0.25749
C          2.51791        0.70228        0.23326
C          1.27170        1.48654       -0.17018
C          0.00868        0.73708        0.26884
C         -1.26041        1.46579       -0.18962
H         -3.40423        1.21468       -0.16347
H         -2.60202        0.72548        1.32656
H         -3.37348       -1.27053        0.14035
H         -2.57063       -0.76123       -1.34268
H         -1.22681       -1.57698        1.27888
H         -1.22729       -2.48006       -0.23511
H          0.03455       -0.69043       -1.36567
H          1.22389       -2.37001       -0.15527
H          3.31978       -1.29069        0.12560
H          2.51249       -0.77350       -1.35228
H          2.61704        0.71423        1.32617
H          3.41014        1.19156       -0.17337
H          1.29994        2.48412        0.28311
H          1.26724        1.62760       -1.25842
H          0.00006        0.70670        1.36865
H         -1.25482        1.57871       -1.28117
H         -1.28685        2.47623        0.23511
