42

O          1.01924        0.08051        0.05610
P          2.56759        0.08051        0.05610
O          2.57071        1.73958        0.33995
C          2.24447        2.62589       -0.67944
C          2.89744        3.85880       -0.67236
C          2.82007        4.70402       -1.78323
C          2.04485        4.34165       -2.88568
C          1.32077        3.15570       -2.86020
C          1.41252        2.30164       -1.75839
N          2.62534       -0.66406        1.68982
C          3.49011       -1.84366        1.97264
C          3.00311       -3.13117        1.27406
O          1.69571       -3.49609        1.71914
C          0.78524       -2.40631        1.50254
C          1.28591       -1.12676        2.21900
N          4.34759        0.08051        0.05610
C          5.06800        1.22647       -0.57982
C          4.89354        1.28126       -2.11454
O          5.37968        0.08819       -2.74121
C          4.75071       -1.06143       -2.18168
C          4.95742       -1.08908       -0.66549
H          3.52558        4.13761        0.17093
H          3.37953        5.63464       -1.79952
H          1.99994        4.98732       -3.75924
H          0.69406        2.87882       -3.70609
H          0.83384        1.38630       -1.78932
H          3.46906       -2.02589        3.05679
H          4.54536       -1.64527        1.77925
H          2.96314       -3.03653        0.18409
H          3.68169       -3.95894        1.50555
H         -0.18556       -2.71316        1.90202
H          0.66131       -2.27596        0.42099
H          1.39785       -1.35655        3.28713
H          0.53567       -0.33079        2.18702
H          6.14009        1.10709       -0.36827
H          4.82281        2.17282       -0.10229
H          3.85360        1.40084       -2.41752
H          5.45778        2.12205       -2.52805
H          5.21186       -1.94648       -2.63261
H          3.68608       -1.07363       -2.44323
H          6.03560       -1.09464       -0.44981
H          4.60118       -2.04251       -0.30145
