27

C          2.35059        1.50747       -0.08066
N          1.59847        0.26560       -0.02715
C          2.06325       -1.05131        0.00292
C          3.46503       -1.42868        0.06167
N          4.03295       -2.57200       -0.01646
O          4.33231       -0.43099        0.23722
C          0.90194       -1.87116       -0.02612
C          0.85117       -3.33167       -0.02449
N         -0.17357       -4.07546        0.16963
O          1.97398       -4.02176       -0.24223
C         -0.25461       -0.98981       -0.04169
C         -1.66504       -1.15872       -0.08671
C         -2.52811       -0.05490       -0.05035
C         -2.01982        1.23016        0.00612
C         -0.64329        1.43567        0.02054
C          0.21607        0.31692       -0.00669
H          1.95132        2.11017       -0.90294
H          2.20998        2.02880        0.87097
H          3.40581        1.37858       -0.28177
H          3.31586       -3.29689       -0.14593
H          5.20751       -0.85564        0.22152
H         -0.99693       -3.51507        0.36451
H          1.71313       -4.95886       -0.17604
H         -2.13417       -2.13288       -0.16238
H         -3.60409       -0.21073       -0.07239
H         -2.69376        2.08290        0.02783
H         -0.25364        2.44912        0.04987
