16

C          1.11488       -0.08301       -0.09680
C          0.68269       -0.04476        1.35705
O          1.21254        1.13149        1.98505
C          2.39900        0.97579        2.61100
O          3.05245       -0.03968        2.74636
C          2.84408        2.32826        3.14919
C          2.03003        2.87296        4.28609
O          3.82551        2.88536        2.67621
H          0.79783        0.82779       -0.61605
H          0.68355       -0.94798       -0.60860
H          2.20548       -0.13342       -0.17912
H         -0.40861        0.02142        1.41818
H          0.98095       -0.95828        1.88433
H          2.20699        2.27315        5.18298
H          2.32373        3.90887        4.48227
H          0.96784        2.86252        4.02602
