22

C          1.10718        0.06546        0.19499
C          0.56490       -0.03845       -1.22587
C          0.98344       -1.33240       -1.94567
O          0.57706       -2.44964       -1.14971
C          0.42378       -1.51016       -3.35012
C          0.02869       -0.42828       -4.15374
C         -0.44632       -0.63024       -5.45402
C         -0.52420       -1.91593       -5.98076
C         -0.12158       -3.00160       -5.21019
C          0.35329       -2.79859       -3.91206
H          0.67942       -0.70351        0.84538
H          0.85030        1.03970        0.62348
H          2.19701       -0.03418        0.20716
H         -0.52952        0.02375       -1.17782
H          0.91967        0.83576       -1.78313
H          2.07743       -1.36468       -2.02827
H          1.18506       -2.50101       -0.39465
H          0.07932        0.59331       -3.78887
H         -0.75533        0.22101       -6.05530
H         -0.89647       -2.07133       -6.98944
H         -0.17757       -4.00856       -5.61445
H          0.66230       -3.66317       -3.32691
