46

C         -0.43216       -0.42023       -0.24486
O         -0.31290       -0.86361       -1.59838
C          0.18005        0.15810       -2.37002
C         -0.75330        0.90061       -3.11520
C         -0.31619        1.96820       -3.90732
N         -1.27441        2.72076       -4.72691
O         -2.46357        2.40050       -4.66868
O         -0.82381        3.63735       -5.43957
C          1.03587        2.29365       -3.94863
C          1.94866        1.48502       -3.25807
C          1.55710        0.40050       -2.45552
N          2.51658       -0.48565       -1.89384
N          2.90177       -0.12957       -0.75771
C          3.94789       -0.96292       -0.09666
C          4.96596       -1.59814       -1.04280
C          6.40119       -1.77417       -0.60010
O          4.65089       -2.09400       -2.13111
C          4.53573       -0.18789        1.10462
O          4.31553       -0.59195        2.25631
N          5.40437        0.88024        1.00611
C          5.85644        1.52392       -0.15560
C          7.23728        1.67041       -0.33292
C          7.74256        1.93929       -1.60705
Cl         9.43528        2.08819       -1.85745
C          6.88434        2.05124       -2.68994
C          5.51673        2.10367       -2.45485
C          5.00317        1.95647       -1.16339
O          3.69623        2.32686       -1.01181
C          3.22485        2.69875        0.28477
H         -1.10120       -1.11119        0.27345
H         -0.86308        0.58623       -0.17631
H          0.53590       -0.44495        0.26292
H         -1.80286        0.62317       -3.07273
H          1.40430        3.13457       -4.53566
H          2.99566        1.70567       -3.37295
H          3.42773       -1.82032        0.35644
H          6.66130       -2.83550       -0.64464
H          7.04767       -1.21607       -1.28268
H          6.58645       -1.44170        0.42018
H          5.94716        1.00032        1.85615
H          7.93019        1.49944        0.48532
H          7.25733        2.15722       -3.70497
H          4.86826        2.29869       -3.29930
H          2.90760        1.82748        0.86522
H          3.95452        3.28924        0.84518
H          2.32618        3.30717        0.14608
