32

C          1.05527        0.10312        0.14923
C          0.58546        0.62054       -1.20766
C          0.91533       -0.27270       -2.45401
C          0.37069       -1.69616       -2.20414
C          0.09829        0.32202       -3.62163
C          2.47706       -0.28980       -2.72212
C          3.06200        0.98850       -3.36731
C          2.98416        1.05617       -4.89185
C          3.36263       -0.24469       -5.56140
O          3.96036       -0.25535       -6.63757
C          2.83088       -1.51881       -4.95384
C          3.05659       -1.51964       -3.45444
H          0.60886       -0.86600        0.38945
H          0.74824        0.80255        0.93439
H          2.14223        0.01036        0.20514
H         -0.50348        0.75032       -1.14013
H          0.99590        1.62674       -1.35384
H         -0.66958       -1.66657       -1.85938
H          0.38356       -2.29606       -3.12090
H          0.95609       -2.22797       -1.44709
H          0.30947        1.38703       -3.76158
H          0.28048       -0.19835       -4.56376
H         -0.97823        0.24464       -3.42444
H          2.93961       -0.34544       -1.72859
H          4.12654        1.03174       -3.09588
H          2.61438        1.88991       -2.93583
H          3.66816        1.83603       -5.24648
H          1.98439        1.32885       -5.23698
H          1.77490       -1.62695       -5.20997
H          3.36709       -2.36480       -5.39838
H          4.14263       -1.52561       -3.27917
H          2.69614       -2.45658       -3.01935
