91

C          0.25405       -0.64335       -0.58259
C         -0.31609       -1.15275        0.76169
C          0.09119       -0.08444        1.81511
C         -1.84891       -1.18576        0.69324
C          0.26520       -2.54434        1.07937
C          0.48762       -3.51400        0.09935
C          1.34048       -4.59818        0.36090
C          2.02034       -4.76223        1.58629
O          2.86208       -5.85394        1.54437
P          4.36448       -6.33818        1.89181
O          5.30944       -5.54882        0.83143
C          6.72500       -5.48591        1.18105
C          6.92702       -4.61745        2.43657
C          6.09513       -5.31044        3.54094
O          4.72793       -5.47283        3.19123
C          8.36538       -4.42395        2.95846
O          8.43576       -3.20662        3.76108
P          8.41305       -1.79250        2.92719
O          7.27608       -0.94863        3.75139
C          7.30909        0.41668        4.00342
C          8.39625        0.93969        4.72915
C          8.41889        2.27835        5.16963
C          7.33966        3.13769        4.93830
C          7.31372        4.60017        5.42316
C          7.41341        4.64966        6.96019
C          8.49422        5.37060        4.80024
C          6.02475        5.37587        5.03655
C          6.26256        2.59401        4.23376
C          6.21213        1.26937        3.71964
C          4.91230        0.93834        2.95077
C          3.77440        0.77400        3.98315
C          4.52331        2.05349        1.94130
C          4.98615       -0.31581        2.09552
O          7.46569       -2.32745        1.71546
C          6.41094       -3.21453        2.11683
C          1.63607       -3.90495        2.65662
C          2.27213       -3.82980        4.05544
C          2.39320       -5.19974        4.73901
C          3.57138       -3.07754        3.78254
C          1.59573       -2.92447        5.13382
C          0.73136       -2.84930        2.35695
H         -0.02946        0.39869       -0.76846
H         -0.10886       -1.22877       -1.43341
H          1.35066       -0.69140       -0.58483
H         -0.19941        0.92430        1.49985
H         -0.38883       -0.25488        2.78579
H          1.17657       -0.07676        1.96826
H         -2.20649       -1.85998       -0.09151
H         -2.28448       -1.51584        1.64334
H         -2.24897       -0.18635        0.47900
H          0.05852       -3.41309       -0.89151
H          1.52043       -5.31022       -0.44668
H          7.24964       -5.04840        0.32375
H          7.12487       -6.50110        1.31361
H          6.12183       -4.72448        4.46676
H          6.51521       -6.29428        3.79507
H          8.66035       -5.25421        3.61214
H          9.10557       -4.38625        2.14921
H          9.23308        0.29837        4.99628
H          9.28809        2.62609        5.72383
H          8.35376        4.22592        7.32671
H          7.35763        5.68278        7.32471
H          6.59244        4.09145        7.42631
H          8.46664        5.31264        3.70536
H          8.46261        6.43165        5.07552
H          9.46149        4.97828        5.13010
H          5.88001        5.40639        3.94962
H          5.13090        4.92770        5.48799
H          6.06533        6.41604        5.38131
H          5.38819        3.21829        4.08597
H          3.56805        1.70730        4.51952
H          2.84049        0.46765        3.50199
H          4.02641        0.01846        4.73705
H          5.35413        2.26610        1.25794
H          3.66141        1.75077        1.33370
H          4.23242        2.99267        2.41990
H          5.81912       -0.28137        1.38728
H          5.09733       -1.16223        2.75146
H          4.06667       -0.49105        1.52524
H          5.66217       -3.19119        1.32008
H          5.95210       -2.83262        3.02406
H          2.48412       -6.04360        4.05761
H          3.23890       -5.21948        5.43554
H          1.49070       -5.41923        5.32249
H          3.36734       -2.01229        3.63907
H          4.30102       -3.16913        4.58934
H          4.00432       -3.37246        2.83013
H          1.56275       -1.86554        4.84618
H          0.57565       -3.24520        5.35924
H          2.18029       -2.95128        6.06378
H          0.45037       -2.16755        3.15388
