44

C         -1.20367        0.76552        0.93239
C         -0.54177        0.97801        2.28147
O         -1.15408        1.78029        3.03391
C          0.69112        0.27880        2.94396
C          1.73964       -0.63800        2.97043
C          2.32744       -0.80679        4.37677
C          2.47265       -1.83470        1.82058
C          3.91648       -2.00497        2.17474
C          4.43978       -0.60797        1.87364
C          3.46460        0.18878        0.93526
C          1.82201       -0.39459        0.49988
C          1.49139        0.77864       -0.43262
C          2.51856       -1.61150        0.07753
C          1.59066       -2.20053       -1.01319
C          0.29137       -2.46719       -0.34869
C          0.60268       -1.81352        0.98683
C         -0.73595       -1.95522        1.79222
C          1.46950       -2.86371        1.79153
H         -1.25355        1.71427        0.38855
H         -2.24201        0.43323        1.06333
H         -0.75786        0.02604        0.28415
H          0.61788        0.79183        3.91399
H          2.28423       -1.85825        4.66982
H          3.35305       -0.44418        4.43854
H          1.77044       -0.25604        5.14491
H          4.39928       -2.75477        1.53760
H          4.10560       -2.30537        3.20822
H          5.45552       -0.66254        1.46010
H          4.54873       -0.02746        2.79454
H          3.44520        1.23378        1.25609
H          4.01471        0.23967       -0.03154
H          0.47040        0.99906       -0.69199
H          1.80030        1.70318        0.09308
H          2.06826        0.76566       -1.35893
H          3.53661       -1.66020       -0.32212
H          1.42287       -1.46058       -1.81086
H          1.99010       -3.09041       -1.50070
H         -0.56563       -2.01542       -0.85756
H          0.10003       -3.54397       -0.25910
H         -1.00631       -3.02483        1.82982
H         -0.67747       -1.69483        2.85386
H         -1.62002       -1.51409        1.34746
H          1.12043       -3.15370        2.78780
H          1.77228       -3.76063        1.24070
