12

O          1.11580       -0.17800       -0.17465
C          2.33905       -0.13771       -0.07324
C          3.06174        0.32638        1.17466
O          3.87176       -0.75077        1.63803
C          3.94258        1.52735        0.83284
O          3.18039        2.71286        0.62734
H          2.98469       -0.44966       -0.91216
H          2.32753        0.58696        1.94436
H          3.26828       -1.41677        2.01652
H          4.63614        1.72298        1.65797
H          4.55596        1.34409       -0.05657
H          2.63437        2.60416       -0.17116
