164

C          1.20796       -0.45164       -0.47725
C          1.03485       -1.05128        0.90946
C          1.48304       -0.09849        2.02000
C          0.71658        1.22762        2.04993
C         -0.79442        1.05409        2.23052
C         -1.16408        0.39199        3.56115
C         -0.72603        1.21941        4.77350
C         -1.37539        2.60650        4.79946
C         -2.90285        2.52607        4.87877
C         -3.37182        1.82668        6.15831
C         -2.91766        2.57534        7.41473
C         -3.46880        4.00301        7.45138
C         -4.99950        4.01217        7.46564
C         -5.55067        3.34048        8.72561
C         -5.09421        4.06804        9.99343
C         -5.52612        5.53983        9.98486
C         -7.04739        5.68837        9.86144
C         -7.79270        4.92081       10.95458
C         -7.33022        5.33166       12.34850
C         -7.77484        6.75194       12.68770
C         -9.26315        6.81295       13.03289
C         -9.64857        5.94591       14.23628
O         -9.06675        6.50719       15.41525
C         -7.78424        6.22697       15.73803
O         -7.18916        5.19755       15.44796
C         -7.15769        7.37948       16.49566
C         -7.65693        8.78141       16.09677
C         -9.15740        9.06602       16.27721
C         -9.75527        8.47065       17.55013
C         -9.19943        9.14774       18.79050
C         -9.79729       10.54042       18.97820
C        -11.29777       10.53825       19.31517
C        -11.79702        9.44450       20.27858
C        -11.17078        9.45825       21.65833
O        -11.76527        9.14577       22.68003
O         -9.88787        9.88148       21.59664
C         -9.30614       10.56953       22.70642
C         -9.69154       12.05067       22.62800
C        -11.17986       12.30801       22.86602
C        -11.62448       11.82515       24.24409
C        -11.16200       12.77538       25.34358
C        -11.90730       14.10998       25.28921
C        -13.42858       13.92583       25.34740
C        -13.86049       13.12260       26.58070
C        -13.40403       13.79546       27.87838
C        -13.95519       15.21853       27.99487
C        -15.48590       15.22558       28.01029
C        -16.03704       14.48423       29.23094
C        -15.58287       15.13610       30.54020
C        -16.05184       16.59061       30.64398
C        -17.57931       16.70083       30.61923
C        -18.22866       15.97244       31.79997
C        -17.79061       16.54465       33.15164
C        -18.16027       18.02196       33.31441
C        -19.67127       18.26771       33.26613
C        -20.43774       17.57565       34.39772
C        -19.98955       17.99442       35.79978
C        -20.16265       19.48512       36.04543
H          0.57192        0.42743       -0.62025
H          0.93344       -1.18203       -1.24313
H          2.24804       -0.15328       -0.64123
H         -0.01041       -1.34770        1.05283
H          1.62376       -1.97251        0.97750
H          1.38551       -0.60902        2.98564
H          2.55162        0.11641        1.90471
H          1.12588        1.85382        2.85099
H          0.90300        1.79140        1.12999
H         -1.27645        2.03434        2.14448
H         -1.21548        0.46624        1.40878
H         -2.24633        0.22191        3.58504
H         -0.72424       -0.60786        3.63086
H         -0.96306        0.66525        5.68822
H          0.36241        1.33119        4.79435
H         -0.97088        3.17580        5.64311
H         -1.08995        3.18905        3.91809
H         -3.32006        3.53620        4.80886
H         -3.31554        2.00445        4.00986
H         -4.46176        1.72562        6.13480
H         -3.00732        0.79585        6.20065
H         -3.22527        2.01187        8.30149
H         -1.82568        2.60817        7.48073
H         -3.05977        4.52540        8.32191
H         -3.11174        4.58845        6.59860
H         -5.35505        5.04375        7.37973
H         -5.41182        3.51678        6.58165
H         -6.64340        3.30553        8.66519
H         -5.24809        2.28995        8.78158
H         -5.48916        3.54344       10.86991
H         -4.00742        4.00977       10.11275
H         -5.15462        6.03358       10.88866
H         -5.04421        6.08783        9.16890
H         -7.30728        6.75094        9.88353
H         -7.39432        5.33504        8.88430
H         -8.87039        5.07062       10.83755
H         -7.64329        3.84145       10.83802
H         -7.70634        4.59707       13.06214
H         -6.24360        5.26319       12.45620
H         -7.16514        7.13724       13.50825
H         -7.57048        7.44129       11.86205
H         -9.50736        7.86123       13.24260
H         -9.86289        6.52197       12.16473
H        -10.73390        6.00397       14.36755
H         -9.40391        4.88681       14.13300
H         -7.27957        7.19731       17.56715
H         -6.08094        7.35151       16.28519
H         -7.09453        9.51649       16.68685
H         -7.39910        8.98259       15.05030
H         -9.31591       10.14893       16.24116
H         -9.72328        8.69757       15.41710
H        -10.84654        8.55226       17.50963
H         -9.55994        7.39673       17.62682
H         -9.39475        8.50239       19.65232
H         -8.10815        9.22594       18.74376
H         -9.23141       11.06459       19.75331
H         -9.63878       11.15644       18.08685
H        -11.55560       11.52727       19.71196
H        -11.86017       10.43950       18.37775
H        -12.87375        9.60640       20.41599
H        -11.67512        8.44473       19.85233
H         -9.55079       10.08358       23.65310
H         -8.22080       10.49052       22.58657
H         -9.09181       12.62351       23.34231
H         -9.44734       12.44125       21.63286
H        -11.38421       13.37533       22.73276
H        -11.78955       11.82623       22.09813
H        -12.71110       11.69753       24.24344
H        -11.24836       10.82759       24.47599
H        -11.31141       12.28964       26.31449
H        -10.08431       12.95484       25.28088
H        -11.56038       14.74077       26.11490
H        -11.64741       14.66609       24.38352
H        -13.91048       14.90853       25.32779
H        -13.80007       13.43268       24.44326
H        -14.94727       12.99072       26.56518
H        -13.46553       12.10163       26.54790
H        -13.70660       13.18019       28.73172
H        -12.31130       13.82738       27.94045
H        -13.54288       15.69414       28.88967
H        -13.59964       15.84873       27.17366
H        -15.84296       16.25950       27.97911
H        -15.89493       14.77589       27.10007
H        -17.12901       14.44647       29.16763
H        -15.72943       13.43361       29.22527
H        -15.94738       14.54296       31.38434
H        -14.49293       15.10121       30.63792
H        -15.63915       17.03934       31.55268
H        -15.63463       17.19575       29.83216
H        -17.86475       17.75724       30.60593
H        -17.98382       16.29914       29.68408
H        -19.31711       16.01536       31.69467
H        -17.99163       14.90333       31.77135
H        -18.23046       15.94524       33.95492
H        -16.70837       16.43256       33.28177
H        -17.73922       18.39519       34.25331
H        -17.67824       18.62450       32.53645
H        -19.85769       19.34641       33.28948
H        -20.08058       17.93262       32.30617
H        -21.50632       17.78885       34.27932
H        -20.34021       16.48731       34.30486
H        -20.57846       17.43893       36.53784
H        -18.94429       17.71350       35.97155
H        -21.20274       19.78441       35.88316
H        -19.88814       19.73427       37.07400
H        -19.52661       20.08084       35.38337
