43

C          0.68758        0.53114        0.23498
C          0.37216        0.85809       -1.21261
O          0.64572       -0.26664       -2.04883
N          2.00714       -0.26623       -2.37981
C          2.27823       -1.09978       -3.33701
O          1.41595       -1.86397       -4.04550
C          0.43753       -1.19762       -4.69531
O          0.29930        0.02425       -4.80829
C         -0.47430       -2.15235       -5.36953
C         -1.68414       -1.66453       -5.88396
C         -2.55481       -2.51606       -6.56430
C         -2.22064       -3.85830       -6.73859
C         -1.01983       -4.35250       -6.22934
C         -0.14646       -3.50447       -5.54475
C          3.66737       -1.38083       -3.73346
C          4.10982       -1.05765       -5.02521
O          3.22377       -0.76415       -6.02699
C          3.05734        0.64395       -6.18953
C          5.46050       -1.17483       -5.35872
C          6.37867       -1.59898       -4.39687
C          5.93741       -1.96861       -3.12258
Cl         7.10519       -2.56168       -1.99634
C          4.58038       -1.87025       -2.78528
O          4.13303       -2.45202       -1.62464
C          4.01073       -1.52936       -0.54510
H          0.20813       -0.40622        0.53482
H          0.35036        1.33284        0.89793
H          1.76457        0.40181        0.37832
H         -0.69330        1.08572       -1.31363
H          0.93126        1.73946       -1.54995
H         -1.94830       -0.61560       -5.75944
H         -3.48969       -2.13018       -6.96317
H         -2.89556       -4.51984       -7.27609
H         -0.75913       -5.39848       -6.37179
H          0.79016       -3.90847       -5.16943
H          2.12169        0.80424       -6.73381
H          2.99068        1.16948       -5.23094
H          3.87464        1.04988       -6.79243
H          5.79650       -0.95059       -6.36813
H          7.43128       -1.68066       -4.65863
H          4.29427       -0.50254       -0.80148
H          2.97245       -1.54987       -0.20264
H          4.63710       -1.87557        0.28165
