21

C          1.87781        1.50834        0.15281
C          0.57825        0.74791        0.04688
C          0.58285       -0.66365        0.03474
N          1.76689       -1.39577        0.20720
C         -0.63503       -1.36053        0.07791
C         -1.85515       -0.67707        0.00883
N         -3.11317       -1.43236        0.03047
O         -3.04250       -2.66959        0.04147
O         -4.16901       -0.78669        0.02957
C         -1.88384        0.71309       -0.08592
C         -0.66692        1.40747       -0.07126
N         -0.74195        2.85938       -0.19678
O         -1.52611        3.44882        0.55780
O         -0.04601        3.39137       -1.07151
H          2.56423        1.01687        0.85063
H          2.35411        1.57599       -0.83001
H          1.73909        2.51653        0.55386
H          1.71110       -2.36942       -0.08118
H          2.60290       -0.95227       -0.16274
H         -0.62069       -2.44649        0.16309
H         -2.82623        1.25405       -0.15948
