13

C          0.92438        0.13862       -0.09698
C          0.49865       -1.29683       -0.40517
C          1.05656       -2.32748        0.57830
N          0.62035       -2.07734        1.98708
O          1.57710       -1.84711        2.73513
N         -0.99114       -1.47123       -0.56281
O         -1.65501       -0.51987       -0.13940
H          0.52132        0.49819        0.85603
H          0.57994        0.82453       -0.87946
H          2.01625        0.21304       -0.04959
H          0.88928       -1.54624       -1.40034
H          0.71242       -3.33867        0.33334
H          2.15246       -2.32853        0.54560
