36

C          2.15111        0.39767       -1.16094
C          1.19986        0.03811       -2.29244
C          1.11698       -1.46522       -2.58895
C          0.01080       -2.23680       -1.86224
O         -1.16084       -1.44430       -1.71672
C         -1.75505       -1.51666       -0.41767
C         -0.98436       -0.69894        0.62762
O         -0.64480       -1.46902        1.77548
C          0.60911       -2.15148        1.74704
C          0.42131       -3.67597        1.82572
O         -0.14845       -4.14237        3.05678
C         -1.49997       -3.71309        3.26510
C         -1.56752       -2.75429        4.46027
O         -0.28226       -2.24172        4.80967
H          2.02460       -0.24158       -0.28684
H          1.98172        1.43391       -0.84774
H          3.19139        0.31325       -1.48811
H          0.21030        0.45907       -2.08765
H          1.55662        0.54881       -3.19441
H          0.92581       -1.57073       -3.66352
H          2.08055       -1.95480       -2.40113
H         -0.25744       -3.12301       -2.44998
H          0.37476       -2.60947       -0.90646
H         -2.75039       -1.07068       -0.52863
H         -1.90391       -2.56084       -0.12318
H         -0.11153       -0.18604        0.22714
H         -1.65302        0.08596        0.99846
H          1.19535       -1.89579        0.86302
H          1.18012       -1.80984        2.61560
H         -0.18329       -4.05000        0.99279
H          1.40761       -4.14846        1.75243
H         -1.95186       -3.28075        2.36590
H         -2.10853       -4.59744        3.48331
H         -2.24505       -1.91983        4.25750
H         -1.94899       -3.28534        5.33657
H          0.34269       -2.93575        4.53291
