93

C          1.28064        0.46292        0.25295
C          0.23245        0.50716        1.35151
N          0.78108        0.62469        2.68690
C          0.51830       -0.54333        3.51394
C          1.13313       -0.07562        4.77053
C          2.82710       -0.12981        4.37741
O          3.43630        0.74731        3.43008
C          4.53282        1.54004        3.86041
C          1.08677       -0.86741        6.05631
O          1.91133       -2.02450        6.00676
C          1.57351        0.13871        7.11958
C          2.10569        1.53335        6.52286
O          3.52032        1.73038        6.52700
C          4.36878        0.85931        7.26732
C          1.34365        2.21312        5.12484
C          1.49060        3.76802        5.30580
C          0.60093        5.06604        5.58325
C          1.43563        6.30795        4.86558
O          1.50585        7.40222        5.77055
C          0.97562        6.76119        3.44446
O          1.97727        7.42184        2.63140
C          2.85912        6.69981        1.76782
C          0.22130        5.63660        2.75852
O         -0.18329        6.04908        1.45205
C          0.99609        4.26007        2.86018
O          1.64054        4.05238        1.54451
C          1.05802        3.94907        0.32010
C         -0.42589        3.72075        0.16661
O          1.76489        4.02333       -0.68577
C          2.20331        4.28788        4.06050
C          2.74772        5.57318        4.74557
O          3.96832        6.03845        4.18091
C          4.98523        6.10223        5.10275
O          4.88221        6.53627        6.23776
C          6.20545        5.35881        4.66765
C          6.27294        4.65092        3.46421
C          7.36798        3.81897        3.19973
C          8.40587        3.70094        4.12461
C          8.36686        4.43260        5.30833
C          7.27068        5.25581        5.57993
C          0.03346        2.92088        3.11818
C         -0.83252        2.04793        4.20553
O         -1.65118        2.77952        5.15073
C         -2.67892        3.62427        4.66864
C          0.18259        1.32670        5.16340
C          1.19549        1.94610        3.36155
H          1.57692        1.45801       -0.07220
H          0.87401       -0.06062       -0.62074
H          2.18138       -0.07372        0.56546
H         -0.53471        1.25798        1.16586
H         -0.31896       -0.44100        1.27357
H         -0.54873       -0.75368        3.63081
H          0.99635       -1.44180        3.10696
H          3.45248       -0.20022        5.25418
H          2.97765       -1.11667        3.91949
H          4.23946        2.28574        4.59509
H          5.35760        0.93852        4.24359
H          4.87926        2.11875        2.99968
H          0.07276       -1.21021        6.28276
H          2.22462       -2.23436        6.90275
H          2.26268       -0.31559        7.83420
H          0.69505        0.38157        7.73735
H          1.76897        2.20740        7.32838
H          4.34323        1.07778        8.33584
H          4.15277       -0.20068        7.10287
H          5.38861        1.00875        6.89811
H          2.17081        3.81008        6.16329
H          0.54726        5.25003        6.66371
H         -0.42836        5.03488        5.24162
H          1.01182        8.15923        5.41029
H          0.24649        7.57068        3.57844
H          3.14125        5.71299        2.12288
H          2.43504        6.59540        0.76617
H          3.78775        7.27042        1.66403
H         -0.73440        5.55140        3.28208
H          0.44510        6.72830        1.13924
H         -0.84135        4.50260       -0.47763
H         -0.60125        2.76151       -0.32491
H         -0.99165        3.73370        1.09549
H          3.06464        3.72048        3.72223
H          3.02166        5.37690        5.78994
H          5.46210        4.69558        2.74263
H          7.39690        3.23741        2.28070
H          9.24031        3.03177        3.92635
H          9.17516        4.34588        6.03096
H          7.23586        5.79191        6.52731
H         -0.43056        3.67693        3.72425
H         -1.49780        1.34390        3.68903
H         -2.68023        4.49763        5.33015
H         -2.51785        3.96540        3.64475
H         -3.65634        3.14594        4.75985
H         -0.32000        1.20368        6.12723
H          2.09604        2.23923        2.83309
