16

N          0.96900       -2.27620       -0.16730
C          1.54106       -1.00465       -0.00038
C          2.93510       -0.88457       -0.06785
C          3.54042        0.38068       -0.03967
N          5.00395        0.48536       -0.08382
O          5.49954        1.62101       -0.10246
O          5.65815       -0.56700       -0.09345
C          2.76423        1.54364        0.01877
C          1.37340        1.43613        0.03331
C          0.76856        0.17295        0.00343
I         -1.33065        0.10210        0.00326
H          0.00015       -2.32514        0.14102
H          1.52828       -3.04715        0.18504
H          3.54295       -1.78369       -0.14804
H          3.22119        2.53114        0.03758
H          0.77275        2.34287        0.05747
