31

C          0.12059        0.83529       -0.38572
C         -0.12919        0.24212       -1.76261
C          0.91301       -0.76693       -2.28044
N          0.88863       -2.08030       -1.64699
C          1.07239       -3.21154       -2.56309
C          2.49951       -3.51130       -3.03851
C          3.04334       -4.80508       -2.44227
C          1.46269       -2.23742       -0.31152
C          2.97438       -2.13349       -0.03935
C          3.67600       -0.85142       -0.44613
H         -0.18260        0.15255        0.41086
H         -0.47654        1.74455       -0.25738
H          1.16953        1.10836       -0.24827
H         -1.12988       -0.20730       -1.78684
H         -0.15497        1.07588       -2.47578
H          0.67089       -0.88580       -3.34639
H          1.90598       -0.31476       -2.27894
H          0.63067       -4.10629       -2.10764
H          0.44956       -3.04196       -3.45328
H          2.50091       -3.61474       -4.13063
H          3.17755       -2.68089       -2.82192
H          2.53838       -5.67200       -2.88035
H          4.11429       -4.89851       -2.64809
H          2.89789       -4.85398       -1.35969
H          0.96322       -1.54979        0.37333
H          1.14856       -3.22231        0.05978
H          3.10712       -2.24703        1.04513
H          3.51035       -2.97564       -0.48003
H          3.14584        0.03156       -0.08311
H          4.68457       -0.83035       -0.02022
H          3.79601       -0.78347       -1.52993
