11

O          2.19472       -0.02810        0.01019
C          0.97032       -0.02137        0.00784
C          0.18926       -1.26698        0.00787
C         -1.14313       -1.16086        0.00296
N         -1.83881        0.02060       -0.00198
C         -1.13244        1.10038       -0.00080
N          0.23096        1.12427        0.00469
H          0.71791       -2.20863        0.01169
H         -1.75369       -2.06061        0.00273
H         -1.60053        2.09719       -0.00434
H          0.74046        1.99469        0.00477
