20

C          1.34552        0.11271       -0.09958
C          0.40531        1.02143       -0.85198
O         -0.59343        0.56210       -1.40793
C          0.71091        2.43463       -0.83040
C         -0.05156        3.52783       -1.19774
C          0.73210        4.68233       -0.94441
C          0.54704        6.07042       -1.06600
C          1.60233        6.92299       -0.71034
C          2.81898        6.41104       -0.25077
C          3.01993        5.03302       -0.11748
C          1.94937        4.21332       -0.46645
O          1.93529        2.85429       -0.38603
H          1.07066       -0.93029       -0.28288
H          1.26377        0.31285        0.97272
H          2.37591        0.25961       -0.43306
H         -1.06108        3.48585       -1.58350
H         -0.39340        6.47872       -1.42392
H          1.47062        7.99985       -0.79569
H          3.62353        7.09533        0.01126
H          3.95541        4.62026        0.23952
