54

C          0.76050        0.20573        0.96961
C          0.21986        1.60860        1.20856
C          0.65661        2.62551        0.14905
C          0.26436        2.28104       -1.29281
C         -1.24610        2.09681       -1.55555
C         -2.09740        3.32554       -1.17121
C         -1.70824        4.62941       -1.85788
C         -1.50936        1.68017       -3.01683
O         -0.83839        0.43940       -3.31450
C          0.22054        0.52241       -4.15954
O          0.64411        1.54242       -4.68268
C          0.79239       -0.82371       -4.38204
C         -0.19536       -1.89650       -4.81086
N         -1.01477       -2.78647       -5.16661
C          2.12774       -1.06750       -4.34963
C          3.08129       -0.01826       -3.91220
C          3.84593        0.67275       -4.86080
C          4.76472        1.64179       -4.45425
C          4.92953        1.92167       -3.09882
C          4.17942        1.23127       -2.14778
C          3.26101        0.26019       -2.55131
C          2.64312       -2.39936       -4.76877
C          3.22507       -3.25878       -3.82797
C          3.73196       -4.49842       -4.22445
C          3.66419       -4.88587       -5.56206
C          3.09729       -4.03318       -6.50756
C          2.59501       -2.79121       -6.11568
H          0.33455       -0.24141        0.06637
H          0.50455       -0.44704        1.81062
H          1.85039        0.21620        0.86999
H         -0.87294        1.57273        1.27381
H          0.57500        1.95594        2.18643
H          0.25839        3.61100        0.41623
H          1.74919        2.72424        0.18961
H          0.66206        3.05657       -1.95918
H          0.79000        1.36279       -1.56812
H         -1.58299        1.25690       -0.93385
H         -3.15012        3.11474       -1.39810
H         -2.05152        3.47670       -0.08646
H         -1.78232        4.55194       -2.94602
H         -2.37943        5.43377       -1.53861
H         -0.68966        4.93355       -1.60049
H         -2.57987        1.49360       -3.15998
H         -1.23273        2.47521       -3.71711
H          3.72801        0.46683       -5.92198
H          5.35007        2.17893       -5.19620
H          5.64460        2.67771       -2.78446
H          4.31213        1.44844       -1.09116
H          2.69385       -0.27730       -1.79547
H          3.29367       -2.97131       -2.78160
H          4.18150       -5.16197       -3.48971
H          4.05583       -5.85257       -5.86886
H          3.04664       -4.33449       -7.55102
H          2.16874       -2.13558       -6.87235
