18

O          1.13656        0.25322       -0.40913
S          2.56713        0.17323       -0.25285
C          2.80864       -1.51855        0.08206
S          2.32395       -2.20904        1.60542
O          0.88627       -2.19557        1.50423
C          2.60812       -1.12517        2.93792
S          2.46025        0.60227        2.75580
O          1.03153        0.78783        2.80933
C          2.83882        1.16712        1.15059
H          3.16295        0.61344       -1.37498
H          2.32815       -2.09185       -0.71576
H          3.88730       -1.68838        0.00549
H          2.74441       -3.46988        1.80903
H          1.96491       -1.43419        3.76704
H          3.64356       -1.30179        3.24663
H          3.03304        1.31398        3.74251
H          3.91282        1.37957        1.15836
H          2.32097        2.11817        0.99572
