47

N          0.97055       -0.59949       -0.20702
C          0.43858       -1.87837       -0.26631
N          1.02296       -2.86222        0.45276
C          0.45540       -4.08854        0.43539
N         -0.70231       -4.47289       -0.14359
C         -1.24002       -3.47051       -0.86096
C         -0.71178       -2.19082       -1.01043
N         -1.47276       -1.43008       -1.86634
C         -2.48749       -2.20380       -2.17250
N         -2.43765       -3.42289       -1.52209
C         -3.61724       -4.26916       -1.43041
O         -3.38421       -5.60948       -0.90441
C         -4.65991       -6.02176       -0.33754
C         -4.54917       -7.23087        0.60695
O         -5.66636       -7.22198        1.49024
P         -5.57435       -7.63866        3.03883
O         -6.26061       -8.92773        3.35493
O         -4.00980       -7.74675        3.36461
O         -6.06920       -6.37210        3.89881
P         -4.82464       -5.25240        4.33498
O         -5.87379       -4.15285        4.52761
O         -4.71646       -5.95077        5.81400
O         -3.58007       -4.13270        4.77114
P         -2.87407       -3.46832        3.33830
O         -1.80554       -2.72690        4.13890
O         -2.13496       -4.89120        3.01359
O         -2.16806       -2.80393        1.90545
C         -5.10671       -4.76966        0.39668
O         -4.32051       -4.65459        1.58788
C         -4.75710       -3.65977       -0.57881
O         -4.46797       -2.44437        0.10654
H          0.65406        0.02551       -0.94029
H          1.93611       -0.55708        0.08441
H          0.98914       -4.85478        0.99053
H         -3.32599       -1.91275       -2.79357
H         -3.96357       -4.41639       -2.46134
H         -5.34598       -6.25008       -1.16302
H         -4.56695       -8.15934        0.02643
H         -3.59547       -7.20944        1.14105
H         -3.85888       -8.47139        4.00718
H         -5.31467       -5.45295        6.40606
H         -1.29454       -4.89340        3.51724
H         -1.21638       -2.68967        2.11321
H         -6.16188       -4.76595        0.68289
H         -3.39365       -4.88103        1.31934
H         -5.60781       -3.46179       -1.24034
H         -3.67627       -2.57408        0.67436
