71

C          0.89825        0.02226       -0.00794
C          0.38652       -0.45443        1.36350
C          0.84276        0.54395        2.45586
C         -1.15336       -0.37932        1.40045
O         -1.93762       -1.17991        1.88463
O         -1.64667        0.77786        0.90182
C          0.94831       -1.87060        1.62876
C          2.19473       -2.05032        2.25946
C          2.65467       -3.31934        2.62511
C          1.88691       -4.44547        2.35537
C          2.32670       -5.72957        2.81519
C          2.71927       -6.83086        3.09038
C          3.22480       -8.21725        3.19026
C          2.32938       -9.23840        2.44034
N          2.41686       -9.25275        0.95779
C          1.39481      -10.14365        0.38359
C          1.55439      -10.22834       -1.14116
C          1.47277       -8.85294       -1.85633
C          1.71633       -8.86513       -3.43670
O          0.73737       -9.81290       -3.92680
C          1.32656       -7.47920       -4.05995
C          0.27820       -7.35135       -4.98903
C         -0.04143       -6.11428       -5.57026
C          0.66897       -4.96596       -5.23216
C          1.71015       -5.05385       -4.32233
C          2.03658       -6.29170       -3.76146
C          3.12891       -9.36744       -3.87051
C          4.05132       -8.55614       -4.56013
C          5.36299       -8.96970       -4.82066
C          5.78712      -10.23098       -4.43174
C          4.88204      -11.09435       -3.83222
C          3.56970      -10.67562       -3.58122
C          2.37185       -7.86826       -1.11591
C          2.25480       -7.91941        0.39124
C          0.70829       -4.30655        1.62301
C          0.25299       -3.03298        1.24953
H          0.59566        1.05546       -0.21690
H          0.50369       -0.60066       -0.81910
H          1.99260       -0.00959       -0.06311
H          0.36041        1.52168        2.34253
H          0.58576        0.17305        3.45616
H          1.92173        0.72817        2.42834
H         -2.61029        0.70790        1.07088
H          2.83108       -1.20464        2.50402
H          3.60754       -3.41658        3.13908
H          4.24903       -8.26946        2.80028
H          3.27598       -8.50055        4.24762
H          2.63817      -10.23510        2.78305
H          1.28865       -9.09829        2.76001
H          0.38085       -9.80964        0.63756
H          1.51879      -11.15389        0.79433
H          0.80099      -10.91387       -1.54561
H          2.53393      -10.68195       -1.29514
H          0.43299       -8.51989       -1.70615
H          1.19309      -10.63128       -4.16945
H         -0.30390       -8.22030       -5.28780
H         -0.84782       -6.05198       -6.29627
H          0.42169       -4.01016       -5.68528
H          2.28655       -4.17094       -4.05706
H          2.91025       -6.31143       -3.11397
H          3.78728       -7.56881       -4.92374
H          6.04927       -8.29359       -5.32424
H          6.81093      -10.54448       -4.61199
H          5.19439      -12.09564       -3.54700
H          2.90407      -11.41024       -3.13686
H          3.41882       -8.01498       -1.40308
H          2.08614       -6.84458       -1.36123
H          3.06407       -7.26932        0.72864
H          1.29224       -7.48661        0.69306
H          0.11816       -5.17972        1.35366
H         -0.68155       -2.97257        0.69395
