23

C          1.00736       -0.06825        0.04858
C          0.32170       -1.21923       -0.63913
O         -0.62151       -1.81083       -0.11835
C          0.77777       -1.60945       -2.00142
C          2.08363       -1.37699       -2.43930
C          2.46479       -1.76036       -3.72882
C          1.54680       -2.36750       -4.60075
C          1.91302       -2.74681       -5.90215
C          0.98477       -3.33929       -6.76000
C         -0.31921       -3.56224       -6.32767
C         -0.69720       -3.19828       -5.03458
C          0.22408       -2.60132       -4.15957
C         -0.14259       -2.22869       -2.85684
H          0.50570        0.12895        1.00130
H          0.92924        0.83149       -0.56804
H          2.05189       -0.30526        0.26072
H          2.82716       -0.91870       -1.79439
H          3.48892       -1.58119       -4.05073
H          2.92684       -2.58139       -6.25995
H          1.28032       -3.62569       -7.76605
H         -1.04389       -4.02058       -6.99572
H         -1.72080       -3.38187       -4.71434
H         -1.15713       -2.41107       -2.50472
