59

C          3.41920        1.44255        0.49797
C          2.12918        0.87661       -0.03334
N          1.08453        1.77568        0.02013
C         -0.11853        1.32540       -0.16086
N         -0.38070        0.03751       -0.53620
C          0.66688       -0.67018       -1.07601
O          0.54848       -1.50583       -1.96951
C          1.98249       -0.39552       -0.45007
C          2.97135       -1.54005       -0.39109
C          2.98721       -2.31324        0.96629
N          2.03134       -3.42169        1.22180
C          0.65094       -3.01916        0.98816
C         -0.36779       -4.10646        1.27272
C         -0.08408       -5.34196        0.39155
C         -1.20219       -6.39632        0.60795
N         -2.49813       -5.85311        0.03315
O         -3.34085       -5.60227        0.90221
C         -0.92393       -7.79703        0.08514
C         -0.27730       -8.71483        0.93672
C         -0.07261      -10.03801        0.54195
C         -0.52265      -10.46067       -0.70195
F         -0.35489      -11.73912       -1.06306
C         -1.14220       -9.57803       -1.57214
C         -1.31999       -8.25244       -1.18318
F         -1.90171       -7.42306       -2.06061
C          1.35224       -5.78997        0.72896
C          2.37190       -4.65213        0.49534
C         -1.72251       -0.46337       -0.79078
C         -2.79359        0.29927       -0.03390
C         -2.63512        1.77320       -0.35692
C         -1.27954        2.26322        0.12548
H          3.77222        2.23731       -0.16957
H          3.26517        1.87724        1.49125
H          4.21863        0.70353        0.58325
H          2.81863       -2.23948       -1.22012
H          3.97943       -1.14064       -0.55871
H          3.99969       -2.71812        1.10133
H          2.87376       -1.58792        1.78360
H          0.52094       -2.79215       -0.06264
H          0.40301       -2.13443        1.58470
H         -1.36191       -3.69701        1.06211
H         -0.34842       -4.37571        2.33608
H         -0.09146       -5.03913       -0.66650
H         -1.38428       -6.49148        1.68808
H          0.06110       -8.40407        1.92396
H          0.42072      -10.74356        1.20347
H         -1.49306       -9.91757       -2.54009
H          1.40457       -6.11536        1.77640
H          1.64620       -6.64378        0.10899
H          3.35319       -5.00800        0.83367
H          2.44852       -4.46250       -0.58154
H         -1.90527       -0.41832       -1.87081
H         -1.75141       -1.52233       -0.50476
H         -2.69014        0.13640        1.04654
H         -3.78711       -0.05718       -0.32552
H         -3.43421        2.35487        0.11496
H         -2.72208        1.92355       -1.44008
H         -1.30946        2.40594        1.21320
H         -1.06132        3.24092       -0.31881
