18

O          0.92265       -0.06806        0.18159
N          2.13782        0.07672        0.00048
O          2.72508       -0.09032       -1.07543
C          2.94805        0.47871        1.15507
C          4.19791        1.07717        0.94354
C          4.96348        1.45911        2.05458
N          6.27278        2.09571        1.84786
O          6.60901        2.34520        0.68364
O          6.95269        2.34312        2.85150
C          4.49634        1.24487        3.36030
C          3.24305        0.64182        3.54657
N          2.74639        0.40707        4.91068
O          3.44489        0.80771        5.85002
O          1.66308       -0.17825        5.03126
C          2.45857        0.25685        2.44980
H          4.56463        1.24497       -0.06949
H          5.09909        1.54325        4.21864
H          1.48522       -0.21149        2.59853
