29

O          0.98332        0.31026       -0.54664
C          2.18602        0.10421       -0.53914
O          2.77307       -0.69821       -1.46447
C          3.17353        0.63405        0.48031
C          2.77155        1.94637        1.11304
C          3.22417        3.09774        0.41850
C          2.93055        4.38988        0.84901
C          2.16089        4.57048        1.98442
C          1.69903        3.45572        2.68128
C          1.99333        2.13846        2.26987
O          1.42704        1.23637        3.14800
C          1.56803       -0.11078        2.99576
C          0.50440       -0.81102        2.42185
C          0.58662       -2.19473        2.26672
C          1.72445       -2.87164        2.70362
Cl         1.85673       -4.56774        2.45001
C          2.76139       -2.18691        3.33696
C          2.66850       -0.80525        3.51132
Cl         3.96207        0.01373        4.30758
H          3.73824       -0.80061       -1.36379
H          3.38965       -0.14461        1.20478
H          4.13425        0.79171       -0.02942
H          3.82141        2.99198       -0.48679
H          3.29821        5.24755        0.29233
H          1.91556        5.57100        2.32889
H          1.09080        3.61297        3.57111
H         -0.37773       -0.27546        2.07594
H         -0.23349       -2.73140        1.79557
H          3.63867       -2.72484        3.68500
