9

Cl         1.15034        0.02419       -0.01201
C          2.86321        0.00884       -0.01661
C          3.57430       -0.64335       -0.94094
C          5.06577       -0.66600       -0.97683
Cl         5.64124       -2.33499       -0.79746
H          3.28276        0.57803        0.80345
H          3.05993       -1.18947       -1.72852
H          5.42736       -0.28263       -1.93530
H          5.51091       -0.06963       -0.17469
