24

O          1.15229       -0.04084        0.09125
C          2.38011       -0.03005        0.09576
C          3.09323        1.26048       -0.07825
C          2.51426        2.41946        0.45773
C          3.14851        3.65305        0.30183
C          4.34730        3.72283       -0.39920
F          4.95520        4.90632       -0.55018
C          4.92176        2.58361       -0.95440
C          4.29181        1.34649       -0.80073
C          3.11516       -1.30759        0.27554
C          2.55670       -2.47841       -0.25656
C          3.21129       -3.70058       -0.09464
C          4.41003       -3.74738        0.60835
F          5.03738       -4.91989        0.76524
C          4.96449       -2.59639        1.15952
C          4.31404       -1.37066        0.99993
H          1.56914        2.36137        0.99476
H          2.71247        4.55700        0.71560
H          5.84994        2.66946       -1.51128
H          4.73428        0.46848       -1.26432
H          1.61152       -2.43854       -0.79517
H          2.79101       -4.61341       -0.50521
H          5.89319       -2.66434        1.71803
H          4.74121       -0.48365        1.46072
