39

C          0.91841        0.20423        0.18391
C          0.53752        1.56246       -0.39087
C          0.86181        1.70040       -1.89000
C          0.14276        0.67625       -2.79261
C         -1.37730        0.66494       -2.67555
N          0.49467        3.05082       -2.34381
C          1.40961        4.09841       -2.47655
C          2.59763        4.01022       -3.22133
N          2.89792        2.84199       -4.02661
O          2.19140        2.63396       -5.02130
O          3.88945        2.17690       -3.69279
C          3.52137        5.06514       -3.33246
C          3.28289        6.29519       -2.71027
C          4.29535        7.39647       -2.88898
C          2.09549        6.46631       -1.96908
C          1.78936        7.79596       -1.31589
C          1.20399        5.35497       -1.84199
N          0.02095        5.50668       -0.99111
O          0.19410        5.90586        0.16745
O         -1.07701        5.19568       -1.47924
H          0.33617       -0.60413       -0.26810
H          0.72753        0.18410        1.26163
H          1.98110       -0.00509        0.02490
H         -0.52587        1.75152       -0.20265
H          1.08293        2.33595        0.16487
H          1.93765        1.53347       -2.00140
H          0.39914        0.87874       -3.83965
H          0.51886       -0.33092       -2.57921
H         -1.80612        1.64796       -2.89192
H         -1.79996       -0.04529       -3.39384
H         -1.70206        0.35620       -1.67797
H         -0.44837        3.32951       -2.05404
H          4.42066        4.92701       -3.93417
H          3.86044        8.22256       -3.46058
H          4.64180        7.75895       -1.91606
H          5.17704        7.04804       -3.43796
H          0.74424        8.07727       -1.48337
H          1.99516        7.74894       -0.24236
H          2.38354        8.61511       -1.72995
