32

C         -4.73830        0.37728        0.16768
C         -4.11159        1.63829        0.15550
C         -2.71819        1.75094        0.11331
C         -1.97722        0.58427        0.08073
C         -2.61012       -0.68792        0.08470
C         -3.98703       -0.80168        0.13211
C         -1.55305       -1.68823        0.02612
C         -1.58015       -3.06914       -0.00537
C         -0.35908       -3.75347       -0.07265
C          0.87007       -3.05725       -0.10369
C          0.92072       -1.63845       -0.06732
C         -0.33069       -1.02398       -0.00611
C         -0.54117        0.34465        0.03071
C          0.54486        1.19794        0.01888
C          1.84726        0.65811       -0.03462
C          2.95362        1.52143       -0.03941
C          4.25516        1.02410       -0.09347
C          4.47123       -0.34687       -0.14622
C          3.38628       -1.22652       -0.14115
C          2.05572       -0.75964       -0.08293
H         -5.82416        0.32107        0.20284
H         -4.72256        2.53812        0.17844
H         -2.24209        2.72474        0.10278
H         -4.47505       -1.76961        0.13961
H         -2.51671       -3.61537        0.01825
H         -0.35546       -4.84107       -0.10206
H          1.78717       -3.63768       -0.15649
H          0.38981        2.27202        0.05299
H          2.81068        2.59945        0.00090
H          5.09889        1.70919       -0.09452
H          5.48487       -0.73690       -0.19015
H          3.59722       -2.29172       -0.18240
