22

Cl        -2.10947       -0.00532       -0.08262
C         -0.38989       -0.00278       -0.04014
C          0.29958       -1.19632        0.15693
C          1.69688       -1.19304        0.19727
C          2.41910        0.00136        0.03089
C          3.89747        0.00350        0.07029
C          4.59633        0.48826        1.20574
Cl         3.71234        1.07100        2.58972
C          6.00131        0.49034        1.23291
Cl         6.90929        1.08113        2.58232
C          6.72761        0.00429        0.14765
C          6.06191       -0.48180       -0.97582
Cl         7.04260       -1.07252       -2.27339
C          4.65752       -0.48036       -1.02551
Cl         3.85068       -1.06321       -2.45575
C          1.70272        1.19371       -0.17254
C          0.30511        1.19254       -0.20267
H         -0.24133       -2.13089        0.27929
H          2.21906       -2.13541        0.35289
H          7.81556        0.00428        0.17754
H          2.22922        2.13758       -0.30133
H         -0.23181        2.12566       -0.35194
