14

C          2.58580       -0.41588        0.00260
C          2.34887        0.95516       -0.00324
C          1.04376        1.45763       -0.00908
C         -0.02155        0.54158       -0.00949
S         -1.71830        0.84614       -0.01666
C         -2.01098       -0.84023       -0.01263
N         -0.95406       -1.61930       -0.00553
C          0.19214       -0.83970       -0.00385
C          1.51782       -1.31935        0.00260
H          3.60649       -0.79119        0.00709
H          3.18884        1.64690       -0.00335
H          0.86043        2.52771       -0.01353
H         -3.01767       -1.23713       -0.01581
H          1.69772       -2.38978        0.00717
