52

C          2.00908       -0.33720       -0.23204
C          1.23926       -1.62274       -0.37549
O          0.98755       -2.30567        0.62182
C          0.90617       -2.12926       -1.74739
C          0.31806       -1.13337       -2.71786
O          1.05002       -0.47303       -3.45959
N         -1.04311       -1.03589       -2.86788
C         -2.02554       -1.59861       -2.04213
C         -2.96638       -2.45332       -2.62778
C         -3.94901       -3.07405       -1.84565
C         -4.01561       -2.83387       -0.47036
C         -5.08102       -3.37663        0.37783
C         -5.94305       -2.49387        1.03093
C         -6.88217       -2.95308        1.95113
C         -6.97166       -4.30294        2.28364
N         -7.82218       -4.74614        3.31321
C         -8.32364       -4.14457        4.43386
O         -9.16371       -4.77933        5.08307
C         -7.89971       -2.77555        4.90407
C         -6.44081       -2.65830        5.26432
C         -5.64714       -1.51935        4.67529
O         -5.90182       -3.44723        6.04335
C         -6.21290       -5.22657        1.53277
C         -6.32579       -6.72512        1.65243
C         -5.26135       -4.74530        0.59959
C         -3.08936       -1.94055        0.09251
C         -2.13350       -1.27165       -0.68485
C         -1.45602       -0.09231       -0.04144
H          1.79124        0.09588        0.74969
H          1.70826        0.39195       -0.98574
H          3.07810       -0.54056       -0.31453
H          1.83698       -2.50790       -2.18790
H          0.24414       -2.99752       -1.66128
H         -1.31464       -0.73258       -3.79662
H         -2.93488       -2.66387       -3.69406
H         -4.67730       -3.72615       -2.32293
H         -5.87898       -1.42500        0.83343
H         -7.55583       -2.21417        2.35960
H         -8.08429       -5.72349        3.30873
H         -8.22303       -2.00656        4.20329
H         -8.45389       -2.55080        5.82539
H         -5.21283       -0.92211        5.48087
H         -4.85217       -1.92653        4.04471
H         -6.27886       -0.86503        4.06989
H         -6.69159       -7.13645        0.70437
H         -5.34638       -7.16283        1.87175
H         -7.00922       -7.06098        2.43334
H         -4.62869       -5.45752        0.06969
H         -3.15199       -1.71148        1.15711
H         -0.71932        0.38447       -0.68931
H         -2.20876        0.67134        0.18653
H         -0.97001       -0.38409        0.89423
