49

C          1.26542        0.38398        0.07578
O          0.62360        1.64558        0.16016
C         -0.69583        1.72081        0.52138
C         -1.15435        3.04854        0.56665
C         -2.48349        3.36125        0.87728
C         -3.03600        4.78697        0.83775
C         -2.54595        5.58456       -0.37187
C         -3.19340        5.42421       -1.61161
C         -2.80020        6.23024       -2.65709
C         -1.75573        7.11290       -2.53743
C         -1.06330        7.25520       -1.35634
O         -0.04186        8.15078       -1.25994
C         -1.48490        6.52514       -0.24197
C         -0.91191        6.79479        1.12445
C         -2.03257        6.80510        2.15375
C         -3.08692        7.87482        1.91900
O         -4.25586        7.38514        2.57076
C         -4.18124        6.02641        2.67021
O         -5.09421        5.32693        3.07493
C         -2.84525        5.51764        2.18669
O         -1.55801        7.84556       -3.66898
C         -2.73345        7.46661       -4.41817
O         -3.39537        6.30383       -3.87816
C         -3.33789        2.30234        1.21727
C         -2.91376        0.96455        1.17793
O         -3.92337        0.09233        1.49015
C         -3.68822       -1.30342        1.39282
C         -1.59010        0.67776        0.80978
O         -1.18970       -0.62367        0.69228
H          0.87455       -0.19255       -0.76823
H          1.20654       -0.17182        1.01597
H          2.32552        0.56555       -0.12859
H         -0.44702        3.83718        0.31915
H         -4.11869        4.67776        0.67065
H         -4.01987        4.73094       -1.73495
H          0.08358        8.51963       -2.15514
H         -0.17232        6.02382        1.36795
H         -0.39713        7.76172        1.15617
H         -1.60224        6.97219        3.15067
H         -2.79723        8.83391        2.35865
H         -3.33847        8.05275        0.86788
H         -2.44548        4.85509        2.96410
H         -3.43860        8.30871       -4.40074
H         -2.44895        7.26871       -5.45609
H         -4.37255        2.50768        1.49411
H         -3.42699       -1.59184        0.36951
H         -2.93933       -1.63445        2.11851
H         -4.62555       -1.81372        1.63707
H         -1.11849       -0.77551       -0.26642
