20

C          1.01163       -0.10207       -0.03328
C          0.54928        0.28473        1.34725
O          0.14022       -0.56381        2.13809
C          0.60924        1.71955        1.75807
C          0.19722        2.05965        3.05278
C          0.23001        3.38918        3.48062
C          0.67238        4.39956        2.61978
C          0.69732        5.82417        3.09002
C          1.08848        4.05881        1.32789
C          1.06006        2.72728        0.89816
H          0.49424        0.48636       -0.79501
H          0.76887       -1.15472       -0.21026
H          2.09473        0.02160       -0.11208
H         -0.15257        1.28903        3.73770
H         -0.09413        3.63036        4.49098
H         -0.30831        6.14147        3.38440
H          1.37276        5.92716        3.94528
H          1.04483        6.50118        2.30276
H          1.43803        4.82933        0.64343
H          1.39389        2.50870       -0.11152
