26

C          1.06390       -0.18817       -0.04956
C          0.31120       -0.90973        0.79850
C         -1.19034       -0.86153        0.75893
C          0.94560       -1.80123        1.79515
C          0.49559       -3.11218        1.96822
C          1.10339       -3.94547        2.90368
C          2.16524       -3.47507        3.68212
C          2.63721       -2.15811        3.56023
C          3.77264       -1.64192        4.38442
C          4.23963       -2.28255        5.47226
C          4.41331       -0.33564        3.98296
C          2.00472       -1.34078        2.60233
H          0.61072        0.46227       -0.79127
H          2.14869       -0.23785       -0.04648
H         -1.60579       -1.79810        0.37369
H         -1.59774       -0.68132        1.75962
H         -1.55150       -0.05378        0.11251
H         -0.31595       -3.50771        1.36352
H          0.75762       -4.96907        3.02327
H          2.61747       -4.17410        4.37918
H          5.06664       -1.87617        6.04831
H          3.82907       -3.21143        5.84833
H          4.73879       -0.36391        2.93754
H          3.71547        0.49744        4.12045
H          5.30084       -0.11033        4.58538
H          2.32112       -0.30838        2.47704
