24

N          1.08758        0.15229        0.15132
C          0.72131        1.12287       -0.87333
C          1.16455        0.70495       -2.27854
C          0.55811       -0.60331       -2.80071
C         -0.97016       -0.62073       -2.90779
C         -1.57436        0.41911       -3.86008
C         -1.11662        0.32628       -5.31828
N         -1.47979       -0.94601       -5.93022
H          0.60257       -0.72816       -0.01455
H          2.08316       -0.05678        0.08688
H         -0.35907        1.29497       -0.84005
H          1.19583        2.07838       -0.62361
H          0.93364        1.51952       -2.97498
H          2.25770        0.60387       -2.28990
H          0.99547       -0.82163       -3.78197
H          0.86926       -1.43165       -2.15298
H         -1.28341       -1.62403       -3.22069
H         -1.40800       -0.47654       -1.91311
H         -2.66731        0.32047       -3.82510
H         -1.35422        1.42665       -3.48795
H         -1.59425        1.13147       -5.88738
H         -0.03572        0.47977       -5.39790
H         -1.16839       -0.95552       -6.90110
H         -0.98645       -1.70826       -5.46908
