24

C          0.41314        0.30340        0.31081
N         -0.01713       -0.03074       -1.02435
C         -0.64117       -1.15853       -1.47657
O         -1.15526       -1.10878       -2.59856
C         -0.81759       -2.37576       -0.57959
S          0.72048       -3.06135        0.08274
P          1.78048       -4.03767       -1.47212
O          1.09263       -3.11245       -2.46834
O          3.21371       -3.37745       -0.96233
C          3.46765       -1.99196       -1.14003
O          2.64547       -4.83439       -2.74095
C          3.46137       -4.08959       -3.62738
H          0.00940       -0.38084        1.05695
H          0.06109        1.31524        0.52994
H          1.50543        0.29772        0.33411
H          0.03357        0.69017       -1.73466
H         -1.46852       -2.09012        0.25291
H         -1.33478       -3.15785       -1.14446
H          2.78426       -1.52075       -1.84985
H          3.39137       -1.48618       -0.17383
H          4.48788       -1.86967       -1.51234
H          3.00804       -3.13781       -3.91134
H          4.44004       -3.91747       -3.17204
H          3.61010       -4.68238       -4.53391
