25

C          0.81158        0.07613       -0.02366
O          0.20424       -0.32911       -1.24736
C          0.80770        0.16140       -2.37211
C         -0.04357        0.54015       -3.40905
C          0.48017        1.02738       -4.61169
C          1.86689        1.12100       -4.79816
C          2.35064        1.56405       -6.13368
O          1.83572        1.02012       -7.11148
C          3.40103        2.63423       -6.29994
Br         4.61670        3.05880       -4.93280
C          3.53854        3.29994       -7.46103
C          2.64542        3.23256       -8.61609
O          3.00847        3.12887       -9.77339
O          1.38193        3.53338       -8.27986
C          2.71281        0.65974       -3.78410
C          2.18709        0.20751       -2.56555
H          0.17252       -0.27045        0.79475
H          0.87529        1.16787        0.03842
H          1.79565       -0.38137        0.11449
H         -1.11984        0.44839       -3.28355
H         -0.20115        1.30510       -5.41404
H          4.36367        3.98654       -7.61734
H          0.89668        3.47829       -9.12920
H          3.78643        0.59484       -3.92799
H          2.87359       -0.15217       -1.80536
