21

C          0.95704        0.40718        0.33709
N          0.39015       -0.68070        1.11829
C         -1.06660       -0.66397        1.09279
C          0.96955       -2.00155        0.84876
C          0.59030       -2.76423       -0.43264
C          1.10737       -2.21251       -1.76012
N          2.56180       -2.11999       -1.80941
H          0.69395        1.36937        0.79116
H          0.59653        0.42583       -0.69424
H          2.05123        0.36094        0.32570
H         -1.46935       -0.81585        0.08581
H         -1.47573       -1.43709        1.75251
H         -1.44404        0.29497        1.46582
H          2.06156       -1.94039        0.93465
H          0.67569       -2.64449        1.69035
H          0.96832       -3.79048       -0.32433
H         -0.49975       -2.86565       -0.49524
H          0.78636       -2.88899       -2.56084
H          0.66049       -1.24213       -1.98634
H          2.84612       -1.75154       -2.71614
H          2.89118       -1.44687       -1.11835
