18

C          0.81390       -0.09699       -0.01807
C          0.48134        0.21337       -1.45193
C          0.20893       -0.85051       -2.33127
C         -0.12722       -0.59345       -3.65650
O         -0.40242       -1.60318       -4.53004
C         -0.20951        0.70789       -4.12467
C          0.07063        1.76728       -3.26111
C          0.47541        1.53459       -1.93922
N          0.64482        2.63400       -1.08232
H          0.56915       -1.13441        0.23415
H          0.23812        0.53955        0.66154
H          1.88342        0.05319        0.15951
H          0.24833       -1.87224       -1.96549
H         -0.31841       -2.44891       -4.06062
H         -0.50009        0.90123       -5.15278
H         -0.02429        2.78384       -3.63325
H          0.91362        3.48503       -1.56634
H          1.24779        2.44527       -0.28891
