58

C          1.07682       -0.03564        0.05319
C         -0.22704       -0.03564        0.05319
C         -1.74704       -0.03564        0.05319
O         -1.72845        0.88323       -1.15161
C         -2.04213        2.19678       -1.15245
C         -1.25990        3.02142       -0.18094
O         -2.75742        2.67963       -1.99873
C         -3.07699       -0.59765       -0.47270
C         -2.84459       -1.14014       -1.90302
C         -1.46384       -1.78004       -1.84774
C         -0.13740       -1.29057       -2.52137
C          0.00521       -0.24301       -3.60898
C          1.29073        0.57914       -3.27812
C          2.50711       -0.25279       -2.90345
C          3.72367        0.31996       -2.80551
C          4.95609       -0.35084       -3.34334
N          5.20732        0.04289       -4.79033
O          4.21486       -0.07036       -5.52238
C          4.91384       -1.87302       -3.20312
C          3.50493       -2.49350       -3.39463
C          2.40633       -1.74420       -2.61061
C          0.94700       -2.37182       -2.66856
C          0.71551       -3.44215       -1.57895
C         -0.58212       -3.35253       -0.69815
C         -1.34895       -1.93330       -0.18990
C         -0.63640       -2.19338        1.30037
C          0.85785       -2.61269        1.51456
H          2.14165        0.00494        0.07132
H         -0.23531        3.12018       -0.55005
H         -1.71401        4.01518       -0.13451
H         -1.27983        2.58852        0.81768
H         -3.48655       -1.37180        0.19713
H         -3.87092        0.15966       -0.49593
H         -3.60788       -1.90711       -2.09280
H         -2.93717       -0.39727       -2.69820
H         -1.69573       -2.68547       -2.43221
H          0.30043       -0.74607       -1.74652
H          0.10417       -0.70937       -4.59517
H         -0.84682        0.43944       -3.63956
H          1.54384        1.18256       -4.15954
H          1.07421        1.28990       -2.47099
H          3.83536        1.29823       -2.34907
H          5.83894        0.04991       -2.83009
H          5.62252       -2.34653       -3.89551
H          5.26630       -2.11278       -2.19160
H          3.25549       -2.48892       -4.46088
H          3.55242       -3.53847       -3.07064
H          2.71160       -1.82485       -1.55232
H          0.83901       -2.84947       -3.65011
H          1.59415       -3.54821       -0.93479
H          0.66840       -4.41244       -2.09625
H         -1.35782       -3.97813       -1.18177
H         -0.43739       -4.06502        0.12689
H         -0.80161       -1.32444        1.95316
H         -1.24363       -2.96018        1.80262
H          1.55707       -2.22821        0.77190
H          1.21765       -2.26436        2.48969
H          0.99068       -3.70096        1.52615
