33

C          1.05921       -0.11913       -0.07329
N          0.54207        0.90359       -0.97551
C          1.45123        1.84689       -1.46658
O          2.63786        1.86626       -1.12568
C          0.93973        2.81385       -2.52681
N          0.06103        3.79555       -1.89777
C         -1.08156        3.38281       -1.46308
C         -1.93432        4.37626       -0.75578
C         -2.11256        5.64712       -1.31338
C         -2.91617        6.58448       -0.66046
C         -3.52401        6.26183        0.55505
C         -3.32867        5.00147        1.12138
C         -2.53591        4.06446        0.46430
F         -2.35415        2.86482        1.03582
C         -1.60584        1.99807       -1.64059
C         -2.94461        1.87811       -2.06083
C         -3.53771        0.62551       -2.15818
Cl        -5.17313        0.48869       -2.66964
C         -2.81414       -0.51405       -1.83732
C         -1.48023       -0.39930       -1.43106
C         -0.83870        0.85249       -1.34951
H          1.17590       -1.06223       -0.61531
H          0.37162       -0.24498        0.76971
H          2.03671        0.15406        0.33450
H          0.46755        2.28097       -3.35970
H          1.80299        3.34090       -2.94857
H         -1.62923        5.90551       -2.25296
H         -3.06151        7.57042       -1.09648
H         -4.14154        6.99729        1.06562
H         -3.78293        4.74631        2.07390
H         -3.52865        2.76119       -2.30934
H         -3.27221       -1.49746       -1.91173
H         -0.94461       -1.32236       -1.22448
