26

N          0.92873        0.16255        0.43192
C          0.42562        1.41765       -0.16391
C          1.07386        1.86443       -1.46637
S          0.64768        0.97983       -2.94313
O         -0.79281        1.00139       -3.10103
O          1.50365        1.47707       -4.00502
C          1.14249       -0.70930       -2.69150
C          0.22693       -1.74125       -2.91956
C          0.61609       -3.06554       -2.70553
C          1.90809       -3.34693       -2.26036
Cl         2.37707       -4.97663       -1.97345
C          2.82572       -2.31674       -2.04920
C          2.45027       -0.99202       -2.28187
C         -1.09705        1.42065       -0.26443
O         -1.80418        2.41520       -0.27205
O         -1.62611        0.18836       -0.42362
H          0.41758       -0.63531        0.04467
H          1.92215        0.02333        0.27201
H          0.66466        2.18037        0.58853
H          0.78020        2.90200       -1.67297
H          2.16563        1.86253       -1.38032
H         -0.78099       -1.52850       -3.27132
H         -0.08999       -3.87198       -2.88959
H          3.83479       -2.54289       -1.71247
H          3.18171       -0.19948       -2.14545
H         -2.57971        0.36852       -0.57076
