34

C          0.80612        0.18919        0.15738
C          0.32866       -1.27468        0.04318
C          0.86247       -1.99687        1.30738
C         -1.21546       -1.24865        0.09436
C          0.78412       -2.04480       -1.21629
C          0.46062       -3.41977       -1.30688
C          0.89794       -4.24032       -2.35962
C          0.60404       -5.72287       -2.34700
C          1.51744       -6.49539       -1.39697
C          1.11816       -6.28959        0.03653
O          0.03605       -6.56472        0.52919
O          2.08421       -5.71840        0.77811
C          1.63937       -3.66789       -3.39042
C          1.93228       -2.30636       -3.36173
C          1.51359       -1.50859       -2.28780
O          1.83878       -0.18294       -2.32149
H          0.47454        0.63898        1.10165
H          0.39662        0.81495       -0.64301
H          1.89965        0.26011        0.14086
H          0.60757       -1.44349        2.21888
H          0.44468       -3.00213        1.42722
H          1.95412       -2.09573        1.27157
H         -1.62982       -0.76137       -0.79603
H         -1.64793       -2.25359        0.14998
H         -1.57269       -0.69904        0.97318
H         -0.14202       -3.87638       -0.52323
H         -0.45253       -5.87687       -2.09454
H          0.73316       -6.12177       -3.36116
H          1.44744       -7.57129       -1.59379
H          2.56717       -6.21227       -1.53743
H          1.67193       -5.58566        1.65698
H          1.99291       -4.27178       -4.22244
H          2.50161       -1.88161       -4.18358
H          2.31255        0.01171       -3.14538
