21

O          0.33191        0.06260        0.12118
C          0.41831        0.56655       -1.20200
C          1.06446        1.94071       -1.19592
C          2.58805        1.91712       -1.14416
F          3.03692        1.29077       -2.26818
F          3.00544        3.21173       -1.25377
C          3.20443        1.27685        0.09585
F          2.68919        1.85705        1.21459
F          2.85106       -0.04124        0.15965
C          4.71126        1.40367        0.08296
F          5.23174        0.81386       -1.03160
F          5.09153        2.71133        0.02754
C          5.28171        0.75256        1.32673
F          4.83819        1.33374        2.46552
F          4.97485       -0.56411        1.40550
F          6.63609        0.83686        1.34905
H          1.04314       -0.59426        0.24635
H          0.95005       -0.14636       -1.84073
H         -0.60707        0.64935       -1.57628
H          0.77776        2.45767       -2.12000
H          0.68248        2.54256       -0.36285
