22

O          0.74588       -0.10061       -0.30646
C          0.39803       -1.23304        0.47883
C          1.12198       -2.48256       -0.01421
C          2.64970       -2.42077        0.09973
C          3.13737       -2.39667        1.52743
C          3.24512       -3.58836        2.25788
C          3.65945       -3.56648        3.59051
C          3.96303       -2.35513        4.20772
C          3.86371       -1.16486        3.48996
C          3.45890       -1.18575        2.15460
H          1.64095        0.17296       -0.04672
H          0.60368       -1.01748        1.53165
H         -0.68272       -1.37674        0.38144
H          0.74016       -3.35393        0.53107
H          0.87534       -2.62868       -1.07326
H          3.07709       -3.30138       -0.39791
H          3.04592       -1.55766       -0.44847
H          3.00618       -4.54177        1.79210
H          3.74199       -4.49584        4.14838
H          4.27788       -2.33786        5.24768
H          4.09958       -0.21947        3.97109
H          3.38985       -0.24627        1.61230
