18

O          1.00701       -0.07309       -0.46481
C          2.12616        0.12396       -0.01867
O          2.75100       -0.72439        0.83762
C          2.99651        1.33793       -0.34501
C          2.31222        2.63919        0.02884
C          3.47815        3.54912        0.34732
O          3.08815        4.65450        1.13882
C          4.44263        2.61073        1.06427
N          4.26921        1.27387        0.45844
H          3.61365       -0.29512        1.06477
H          3.25706        1.30719       -1.40890
H          1.70074        3.03743       -0.78764
H          1.64998        2.52474        0.89685
H          3.93097        3.92406       -0.57832
H          2.60007        4.32845        1.91492
H          4.21316        2.55572        2.13486
H          5.47779        2.95726        0.97657
H          5.03911        1.12855       -0.20382
