74

C         -0.20826       -1.80126       -1.51770
C         -0.68020       -3.19227       -1.13849
C          0.03773       -3.78524        0.08336
C         -0.28760       -3.12967        1.44140
Cl        -2.05894       -3.16715        1.74563
C          0.40740       -3.85864        2.60719
C          1.80199       -3.32725        2.95367
C          1.84686       -1.92161        3.57838
C          0.90914       -1.63493        4.76780
Cl         1.02217       -2.93987        5.99881
C          1.21856       -0.30854        5.48765
C          1.34374        0.94595        4.60908
C          0.04736        1.43037        3.94577
Cl        -1.16855        1.83653        5.20458
C          0.26585        2.68577        3.08356
C          1.20267        2.52475        1.87233
C          0.85902        1.39940        0.88288
Cl        -0.85587        1.52674        0.36877
C          1.73840        1.42000       -0.37866
C          3.25082        1.24221       -0.15824
C          3.70656       -0.06368        0.52106
Cl         3.13186       -1.48474       -0.40134
C          5.23566       -0.19054        0.63898
C          5.91629        0.91028        1.45108
C          5.68662        0.85128        2.96865
C          6.42237       -0.26234        3.75069
Cl         8.14886       -0.36216        3.26154
C          6.39936        0.00732        5.26818
C          5.06565       -0.28597        5.95329
C          4.87086       -1.76726        6.24434
H         -0.10010       -1.16039       -0.64208
H         -0.92244       -1.32647       -2.19763
H          0.75240       -1.84935       -2.03778
H         -1.76222       -3.17316       -0.97852
H         -0.51438       -3.85413       -1.99766
H         -0.22538       -4.84956        0.13220
H          1.12025       -3.74944       -0.08614
H         -0.01410       -2.07256        1.43233
H         -0.21080       -3.82297        3.51061
H          0.50029       -4.92499        2.36530
H          2.27674       -4.03312        3.64739
H          2.43165       -3.33365        2.05620
H          2.88324       -1.72363        3.87493
H          1.62201       -1.20056        2.78758
H         -0.12862       -1.62365        4.42188
H          0.46644       -0.14200        6.26892
H          2.16423       -0.41523        6.02909
H          1.74336        1.75420        5.23723
H          2.10904        0.76714        3.84692
H         -0.39678        0.63010        3.34780
H         -0.70407        3.05932        2.73230
H          0.67552        3.48924        3.71185
H          1.21038        3.48271        1.33370
H          2.22470        2.38482        2.24080
H          0.94999        0.42818        1.37515
H          1.39074        0.65943       -1.08589
H          1.59381        2.38118       -0.89278
H          3.74195        1.32623       -1.13560
H          3.59989        2.09936        0.42555
H          3.25755       -0.14417        1.51071
H          5.49526       -1.16729        1.07072
H          5.66896       -0.17959       -0.36912
H          6.98802        0.88982        1.22696
H          5.58758        1.89144        1.09194
H          5.99535        1.82283        3.37212
H          4.61011        0.77682        3.16754
H          5.98397       -1.23794        3.52286
H          7.18014       -0.57554        5.77389
H          6.64991        1.06095        5.44571
H          5.04395        0.25076        6.90999
H          4.23308        0.09772        5.35910
H          4.67480       -2.33211        5.32894
H          4.02270       -1.91053        6.92113
H          5.75462       -2.19609        6.72804
