65

C         -1.10632       -0.06620        0.78363
C         -1.24739        1.33433        0.25713
O         -2.06532        1.67375       -0.57615
O         -0.40184        2.17816        0.91713
C         -0.61539        3.56332        0.66719
C          0.26145        4.22445       -0.40596
O         -0.25493        4.84561       -1.33551
C          1.79172        4.13841       -0.22749
O          2.13290        3.77961        1.12361
C          2.39252        3.06819       -1.16208
O          1.80633        1.75399       -1.14592
C          2.14088        0.62514       -0.50595
C          2.72319        0.71579        0.86161
O          1.86884       -0.46598       -1.00184
C          3.88840        3.22103       -0.90149
C          4.09269        4.75494       -0.78887
C          5.10600        5.22998        0.29037
C          6.43608        4.49404        0.07599
C          7.58519        5.13143        0.82296
C          7.73346        6.60123        0.44907
C          8.95019        7.14804        0.65344
C          9.10751        7.44099        2.13012
O         10.21569        7.59421        2.62610
C          7.84656        7.58734        2.94763
C          6.62316        7.57485        2.36489
C          6.49774        7.44794        0.83638
C          6.57682        8.92156        0.33306
C          5.22817        6.77435        0.16400
F          5.39797        7.00197       -1.20243
C          3.87186        7.45106        0.50649
O          3.64897        8.59325       -0.32733
C          2.62734        6.54563        0.41243
C          2.66856        5.40134       -0.63560
C          2.29784        6.02301       -2.01506
H         -1.55113       -0.76585        0.07070
H         -1.62118       -0.14927        1.74371
H         -0.05701       -0.33631        0.90707
H         -1.66763        3.77590        0.44526
H         -0.41795        4.08818        1.60951
H          1.74147        4.41657        1.74346
H          2.21489        3.36238       -2.20176
H          2.20480        1.46312        1.45757
H          2.54875       -0.24094        1.36679
H          3.79736        0.88105        0.82429
H          4.48262        2.78636       -1.71284
H          4.20069        2.72895        0.01855
H          4.50688        5.04817       -1.76487
H          4.73897        4.98136        1.29579
H          6.68243        4.44315       -0.99063
H          6.33622        3.45855        0.42619
H          8.50825        4.58239        0.60159
H          7.40930        5.01551        1.90075
H          9.22920        8.07773        0.15467
H          8.00279        7.73567        4.00940
H          5.74220        7.74651        2.97414
H          5.73631        9.51371        0.71531
H          7.47640        9.44766        0.67382
H          6.56699        8.97966       -0.75980
H          3.89464        7.83159        1.53325
H          4.05843        8.39706       -1.19398
H          1.73569        7.16266        0.23099
H          2.48793        6.13793        1.41551
H          3.03977        6.76945       -2.32002
H          2.26232        5.29019       -2.82597
H          1.33312        6.53702       -1.98933
