22

Cl        -2.68554        0.73436       -0.60940
C         -1.17883       -0.04927       -0.26286
C         -1.17593       -1.44938       -0.25669
C          0.00108       -2.14673       -0.00019
C          1.17550       -1.44469        0.25542
C          1.17319       -0.04456        0.25992
Cl         2.67697        0.74509        0.60548
C         -0.00420        0.68676       -0.00186
C         -0.00706        2.16723       -0.00252
C         -0.39730        2.90062        1.13742
Cl        -0.88343        2.11365        2.60326
C         -0.40463        4.30073        1.13376
C         -0.01296        5.00073       -0.00381
C          0.38169        4.30133       -1.14072
C          0.38020        2.90119       -1.14311
Cl         0.86965        2.11490       -2.60820
H         -2.09261       -2.00083       -0.45381
H          0.00310       -3.23416        0.00050
H          2.09422       -1.99249        0.45322
H         -0.71471        4.85011        2.01992
H         -0.01527        6.08815       -0.00432
H          0.68946        4.85119       -2.02738
