42

N          0.93837       -0.06919       -0.03760
C          2.19933       -0.06919       -0.03760
C          3.71933       -0.06919       -0.03760
C          4.10801        1.37512       -0.35892
N          3.65073        2.28024        0.69890
C          4.61538        3.01288        1.51786
C          4.47589        4.51451        1.27382
C          3.05740        4.88461        1.67546
N          1.88065        5.19164        2.00866
C          2.28470        2.39405        0.99052
C          1.37948        2.95042        0.06135
C          0.01487        3.09219        0.37572
C         -0.49380        2.62745        1.59593
N         -1.85577        2.78660        1.93494
N         -2.55276        1.93319        1.34054
C         -3.92720        2.12523        1.61112
C         -4.61780        1.26283        2.48583
Cl        -3.79220        0.00555        3.34231
C         -6.00126        1.37425        2.68709
C         -6.71688        2.36195        2.00509
N         -8.17248        2.46300        2.17575
O         -8.72614        1.61660        2.89283
O         -8.75812        3.38054        1.58867
C         -6.06062        3.24108        1.13933
C         -4.67924        3.11244        0.94225
Cl        -3.94479        4.19683       -0.19040
C          0.39335        2.05307        2.51209
C          1.76558        1.95573        2.22511
H          4.09485       -0.38063        0.94234
H          4.09338       -0.75502       -0.80333
H          5.19708        1.43215       -0.46736
H          3.68766        1.68887       -1.32377
H          4.47287        2.77324        2.57916
H          5.63878        2.70853        1.27084
H          5.19227        5.07226        1.88466
H          4.63676        4.76540        0.22010
H          1.73537        3.33324       -0.89048
H         -0.65179        3.58045       -0.32927
H         -6.50567        0.68239        3.36054
H         -6.60990        4.01191        0.60114
H          0.01019        1.66837        3.45241
H          2.41591        1.48402        2.95483
