40

N          1.24316       -0.20181        0.13243
C          0.67769        0.20324        1.41515
C          1.07833        1.61732        1.84706
C          0.67749        2.74412        0.88768
N         -0.77146        2.83600        0.71886
C         -1.16689        3.87047       -0.23602
C         -0.84827        3.56300       -1.70654
C         -1.43029        2.25008       -2.25178
C         -2.95628        2.12343       -2.17123
N         -3.61246        3.11534       -3.01928
C         -5.07350        3.07593       -2.92427
C         -5.66582        3.58202       -1.60130
C         -5.24180        4.98995       -1.17613
N         -5.64901        6.01465       -2.12911
H          0.90963        0.41012       -0.60999
H          2.25684       -0.09770        0.15351
H         -0.41190        0.10473        1.37308
H          1.02037       -0.50601        2.17678
H          0.64294        1.81475        2.83511
H          2.16732        1.65260        1.98095
H          1.05095        3.68945        1.29983
H          1.18158        2.59035       -0.07148
H         -1.15703        1.93693        0.43740
H         -2.24512        4.02374       -0.12619
H         -0.70868        4.82774        0.04175
H         -1.20254        4.40219       -2.31696
H          0.23846        3.54206       -1.85030
H         -1.11517        2.14090       -3.29769
H         -0.98252        1.40368       -1.71818
H         -3.23391        1.11894       -2.51221
H         -3.27423        2.20987       -1.12807
H         -3.27873        4.05117       -2.80923
H         -5.47323        3.68032       -3.74689
H         -5.42969        2.05575       -3.11337
H         -6.76016        3.55051       -1.68342
H         -5.40847        2.88480       -0.79481
H         -5.70077        5.21580       -0.20745
H         -4.15894        5.04122       -1.02921
H         -5.34195        6.92836       -1.79496
H         -5.18333        5.86926       -3.02353
