21

C          1.04371       -0.01304       -1.12410
C          0.44866        0.74303        0.05107
O          1.06939        2.00712        0.27883
C          2.41905        1.95690        0.74114
C          2.51237        2.02738        2.26311
O          2.11592        0.77990        2.86750
C          0.99847        0.57923        3.59976
C         -0.09354        1.60633        3.57431
O          0.84572       -0.47921        4.20719
H          1.15838        0.63912       -1.99478
H          0.40723       -0.86187       -1.39116
H          2.03333       -0.41082       -0.88018
H         -0.60350        0.95476       -0.16813
H          0.47034        0.12883        0.95356
H          2.94905        1.08204        0.35633
H          2.91217        2.84539        0.33123
H          3.56290        2.16824        2.54049
H          1.96477        2.88319        2.65720
H         -0.75631        1.41927        2.72672
H         -0.67175        1.51063        4.50002
H          0.26491        2.63243        3.55892
