23

C          1.18804        0.09910        0.07633
C          0.57156        1.46684        0.06312
C         -0.72565        1.65168       -0.43326
C         -1.32376        2.91328       -0.39941
C         -0.62191        4.00255        0.11237
C          0.66460        3.82534        0.62384
C          1.25174        2.55930        0.61735
O          1.35637        4.83028        1.24249
C          1.70317        5.86743        0.34011
C          0.57508        6.81597       -0.01837
O          0.71831        8.04019        0.03761
C         -0.66777        6.18908       -0.61997
O         -1.28596        5.19600        0.18151
H          0.90443       -0.46177       -0.82043
H          0.85661       -0.45260        0.96135
H          2.28128        0.16068        0.08866
H         -1.28597        0.80854       -0.83225
H         -2.34022        3.04180       -0.76143
H          2.23876        2.42745        1.05433
H          2.14366        5.46794       -0.58269
H          2.48394        6.45961        0.83099
H         -1.40612        6.98790       -0.75319
H         -0.42987        5.80927       -1.62221
