31

O          0.03227       -2.15981        0.61068
C          0.82181       -2.22865       -0.29910
C          2.28576       -2.35820       -0.13425
C          3.06907       -2.44302        1.00024
Cl         2.43951       -1.96785        2.53441
C          4.39652       -2.88274        0.83794
Cl         5.43741       -3.00874        2.22738
C          4.88154       -3.24473       -0.44862
Cl         6.43010       -4.02399       -0.60587
C          4.09858       -3.01261       -1.59442
Cl         4.60470       -3.49058       -3.17322
C          2.83248       -2.49759       -1.40235
C          1.79175       -2.08872       -2.32765
N          1.93182       -1.62721       -3.52669
C          0.73127       -1.20061       -4.15459
C          0.78910       -0.40888       -5.29967
C         -0.38660       -0.03536       -5.95601
C         -1.62420       -0.51187       -5.51144
C         -1.70989       -1.29148       -4.34743
C         -2.92208       -1.80124       -3.85040
C         -2.96265       -2.47580       -2.62532
C         -1.81003       -2.58944       -1.84840
C         -0.59836       -2.12347       -2.35446
C         -0.52662       -1.55547       -3.63297
N          0.61184       -2.19397       -1.65324
H          1.75184       -0.06538       -5.66784
H         -0.33741        0.61742       -6.82419
H         -2.52480       -0.23832       -6.05689
H         -3.84318       -1.67763       -4.41593
H         -3.90030       -2.89365       -2.26618
H         -1.86185       -3.08337       -0.88150
