8

C          1.07724       -0.01583        0.05734
C          0.57776       -0.26254       -1.35589
I          1.27347       -2.13887       -2.09009
H          0.72412       -0.78965        0.74730
H          0.71301        0.95017        0.42184
H          2.17160        0.00126        0.09764
H         -0.51725       -0.24362       -1.36579
H          0.92305        0.54337       -2.01223
