37

C          0.03898        0.50077       -0.78456
C          0.26366        1.69546        0.13148
O          1.43811        2.36061       -0.29017
C          2.62403        2.25354        0.49371
O          2.66480        3.17213        1.62170
C          3.70635        2.68204        2.37468
C          4.31456        3.34594        3.41980
C          5.23755        2.64082        4.21123
C          5.52271        1.29356        3.94492
O          6.29719        0.44174        4.68353
S          6.89447        0.72507        6.16715
C          8.39825        1.50406        5.63697
O          6.08984        1.68833        6.89364
O          7.24465       -0.54878        6.75969
C          4.96080        0.67461        2.82815
C          4.05091        1.37804        2.05770
C          3.15382        0.86042        0.97330
C          3.91235        0.15303       -0.15083
C          2.20090       -0.11060        1.68900
H         -0.30768        0.83833       -1.76654
H         -0.70394       -0.18617       -0.37091
H          0.96475       -0.04903       -0.97549
H         -0.58124        2.38143        0.00626
H          0.28245        1.43398        1.19045
H          3.37894        2.66900       -0.19258
H          4.05842        4.37537        3.64897
H          5.67822        3.16693        5.05234
H          8.15987        2.44503        5.13991
H          9.01513        1.68727        6.51745
H          8.91368        0.82621        4.95260
H          5.16456       -0.37264        2.62171
H          4.35271       -0.78932        0.19220
H          3.25228       -0.07080       -0.99388
H          4.73556        0.77130       -0.52922
H          1.64237        0.38154        2.49483
H          1.49545       -0.59687        1.01853
H          2.75747       -0.92941        2.16389
