34

C          1.52317       -0.83561       -0.30608
C          0.76907        0.41116        0.12719
C          0.90780        1.59284       -0.84239
C          0.23730        1.39085       -2.20709
C         -1.28974        1.42229       -2.15253
C          0.84118        2.23424       -3.34039
O          1.76759        1.76578       -4.01316
N          0.33973        3.43954       -3.73150
C         -0.42969        4.39877       -3.06745
C         -0.22673        4.72693       -1.73164
C         -1.00173        5.71437       -1.11810
C         -1.98238        6.40586       -1.84113
C         -2.81112        7.44900       -1.14816
C         -2.14405        6.10614       -3.20130
Cl        -3.31443        6.92535       -4.17314
C         -1.35683        5.12631       -3.81471
H          1.08515       -1.28198       -1.20289
H          1.48523       -1.58910        0.48752
H          2.57477       -0.60932       -0.50726
H         -0.28744        0.16662        0.28305
H          1.16119        0.72505        1.10263
H          0.46199        2.44946       -0.33231
H          1.97119        1.82537       -0.97741
H          0.47298        0.36912       -2.53726
H         -1.66780        2.29523       -1.61429
H         -1.72219        1.43047       -3.15897
H         -1.67427        0.53533       -1.63783
H          0.59681        3.65607       -4.68888
H          0.58489        4.28566       -1.16673
H         -0.81741        5.95269       -0.07204
H         -2.67497        8.42476       -1.62468
H         -3.86940        7.17035       -1.17080
H         -2.52186        7.55467       -0.09693
H         -1.50132        4.90701       -4.86968
