31

C          1.06565        0.29228        0.17144
C          0.45724       -0.40945        1.37789
O          0.48860        0.49016        2.49005
C         -1.00000       -0.85358        1.18240
C         -1.34752       -1.61182       -0.10592
C         -0.89613       -3.08536       -0.27821
C          0.25734       -3.54515        0.62191
C          0.61587       -5.01747        0.42782
C         -0.59936       -5.92244        0.57595
C         -1.71321       -5.49536       -0.36996
C         -2.10282       -4.03572       -0.14653
H          0.48432        1.17967       -0.10046
H          1.13097       -0.37067       -0.69596
H          2.07894        0.63892        0.40231
H          1.08406       -1.25646        1.66146
H          1.41926        0.71055        2.65952
H         -1.32495       -1.43061        2.05762
H         -1.62492        0.05111        1.20705
H         -2.44124       -1.57109       -0.20808
H         -0.98385       -1.03781       -0.96623
H         -0.54755       -3.17770       -1.31736
H          1.15312       -2.95656        0.40100
H         -0.00163       -3.39119        1.67605
H          1.38093       -5.30572        1.15797
H          1.05713       -5.15555       -0.56677
H         -0.96197       -5.88735        1.61059
H         -0.31411       -6.96012        0.37051
H         -2.58850       -6.13831       -0.22623
H         -1.38396       -5.63175       -1.40789
H         -2.55570       -3.92647        0.84671
H         -2.87125       -3.76441       -0.88108
