61

C          1.46500       -1.95749        1.40692
O          0.72099       -1.21432        2.37152
C          1.50184       -0.53814        3.25863
O          2.71043       -0.68583        3.38827
C          0.69317        0.45254        4.04551
C          1.12419        1.87007        3.67536
N          0.32914        2.36964        2.54604
C         -0.46998        3.59541        2.71460
C          0.35287        4.87769        2.66402
C          0.26284        5.49336        1.29478
O         -0.77420        5.93479        0.81326
O          1.47110        5.47854        0.67334
C          1.42707        5.83597       -0.70917
C          0.68931        2.01396        1.25415
C          1.84352        2.46935        0.62549
C          2.09790        2.15897       -0.71963
C          1.25601        1.30639       -1.45591
N          1.53441        1.08348       -2.82569
N          2.52499        0.33362       -2.97548
C          2.82990        0.16519       -4.34681
C          2.03090       -0.69563       -5.12634
C          2.32477       -0.99450       -6.46120
C          3.45673       -0.43602       -7.05057
N          3.80676       -0.79098       -8.43296
O          3.08761       -1.61404       -9.01555
O          4.80988       -0.25727       -8.92415
C          4.27020        0.43845       -6.32024
C          3.95209        0.73607       -4.97360
N          4.83848        1.66307       -4.25778
O          5.62748        2.32792       -4.94563
O          4.78110        1.72810       -3.02487
C          0.15052        0.74558       -0.78412
N         -0.66442       -0.31108       -1.26615
C         -0.53938       -0.90259       -2.49610
C         -0.04368       -2.32531       -2.42492
O         -0.77660       -0.34485       -3.56202
C         -0.13734        1.14600        0.53543
H          0.77769       -2.24585        0.60831
H          1.87695       -2.86349        1.85769
H          2.25631       -1.34365        0.96317
H         -0.37966        0.29457        3.88144
H          0.88402        0.25044        5.10572
H          0.93980        2.50800        4.54909
H          2.19867        1.93986        3.46845
H         -1.29046        3.60599        1.98593
H         -0.95528        3.53802        3.69750
H         -0.06041        5.61912        3.35897
H          1.39694        4.72329        2.95652
H          0.63118        5.29431       -1.23186
H          1.29676        6.91602       -0.81280
H          2.38144        5.55005       -1.16086
H          2.53959        3.11526        1.15522
H          2.97570        2.58797       -1.19932
H          1.14998       -1.15496       -4.69136
H          1.66581       -1.66728       -7.00896
H          5.15208        0.87588       -6.78804
H         -1.10472       -0.86501       -0.54147
H         -0.45812       -2.90195       -3.25507
H          1.04899       -2.31985       -2.49991
H         -0.32765       -2.80633       -1.48645
H         -1.01413        0.74817        1.04335
