39

C          0.46499       -0.50679       -0.74830
C         -0.09422       -1.31343        0.41004
C          1.00894       -1.98453        1.23162
O         -0.93405       -0.65409        1.33468
P         -1.51071        0.97689        1.31812
O         -2.13427        0.82668        2.70550
O          0.05639        1.45364        1.42502
C          0.80858        1.69836        2.60244
C          0.57995        0.73402        3.76216
C          2.27266        1.64829        2.15037
S         -2.21737        2.97554        1.29783
C         -4.00839        2.72377        1.16281
C         -4.40361        2.08509       -0.14670
C         -4.79294        2.88264       -1.23468
C         -5.14381        2.29733       -2.45273
C         -5.09026        0.91495       -2.60629
C         -4.70684        0.11020       -1.53380
C         -4.38164        0.69139       -0.30702
H          0.95416        0.41716       -0.44043
H         -0.33847       -0.23860       -1.44055
H          1.20441       -1.09642       -1.30267
H         -0.69536       -2.12248       -0.02079
H          1.59998       -1.25274        1.78656
H          0.56798       -2.64645        1.98740
H          1.68691       -2.57576        0.61036
H          0.59899        2.71867        2.94003
H          0.23421       -0.25093        3.44792
H          1.48408        0.59873        4.36524
H         -0.18110        1.14396        4.43493
H          2.47878        2.46037        1.44418
H          2.97053        1.73503        2.98786
H          2.49323        0.72204        1.60965
H         -4.36691        2.11551        2.00008
H         -4.49739        3.69929        1.26269
H         -4.83557        3.96502       -1.13584
H         -5.46159        2.92410       -3.28371
H         -5.35845        0.46182       -3.55728
H         -4.67657       -0.96948       -1.65114
H         -4.12818        0.03977        0.52852
