17

O          1.19821       -0.06992        0.18204
S          2.62903        0.03465       -0.04624
O          3.19011        1.25406       -0.59742
F          3.26581       -0.08436        1.40528
C          3.20131       -1.40548       -0.96077
F          2.72032       -2.55618       -0.39865
F          2.73881       -1.40099       -2.24580
C          4.70974       -1.41126       -0.93631
F          5.20833       -0.28994       -1.51709
F          5.15259       -1.39881        0.35068
C          5.23751       -2.63186       -1.65111
F          4.76502       -3.76659       -1.06211
F          4.78675       -2.66242       -2.93632
C          6.75380       -2.62813       -1.62906
F          7.27351       -1.54294       -2.24653
F          7.24405       -2.64459       -0.36787
F          7.25731       -3.71749       -2.25982
