20

C          1.18885       -0.08495       -0.10926
C          0.76452       -0.97261        1.04967
C          1.06555       -0.36639        2.42186
C          0.32900        0.93510        2.78913
N         -1.12796        0.75134        2.92345
C         -1.65315        1.56539        4.02861
N         -1.76966        0.92792        1.78530
O         -2.95136        0.58117        1.87264
H          0.64934        0.86594       -0.11206
H          0.98363       -0.58744       -1.06006
H          2.26188        0.12709       -0.06531
H         -0.29725       -1.22266        0.95887
H          1.30632       -1.92320        0.96962
H          0.84315       -1.12109        3.18774
H          2.14484       -0.17772        2.49088
H          0.75546        1.24730        3.75280
H          0.58108        1.74432        2.09001
H         -1.59776        2.63954        3.81471
H         -2.69651        1.30951        4.25151
H         -1.09868        1.36922        4.95418
