78

C          0.91870       -1.04575        0.09547
C          0.51296       -0.81107        1.52976
C          0.08948       -1.87942        2.32352
O          0.07914       -3.13640        1.79063
C         -0.30427       -1.67930        3.64032
C         -0.31467       -0.39235        4.19520
C          0.07970        0.70982        3.41599
C          0.58084        0.48262        2.10947
C          1.17634        1.59091        1.29062
O         -0.01810        2.01294        3.89288
C         -0.88569        2.20069        5.04544
C         -2.36876        2.07078        4.60145
C         -0.78171        3.64801        5.63676
C          0.50562        4.11539        6.33811
C          1.59928        4.64935        5.40959
C          1.24897        5.99380        4.72206
C          1.51325        7.18613        5.64995
C          2.01554        6.20513        3.39654
C          1.81315        5.11380        2.34082
C          0.35145        4.85389        1.96086
C         -0.21234        5.58867        0.73579
C          0.67062        5.41508       -0.50667
C         -1.63001        5.06540        0.38400
C         -2.64290        4.98369        1.53202
C         -2.81450        6.25633        2.36492
C         -3.22445        7.50067        1.56365
C         -4.64898        7.37809        1.02580
C         -3.09255        8.74371        2.44466
C         -0.51653        1.16925        6.11873
C         -0.78569       -0.23441        5.61149
H          0.48562       -0.27778       -0.55629
H          0.55917       -2.00378       -0.29134
H          2.00907       -1.02803        0.00200
H         -0.18584       -3.76664        2.48095
H         -0.62596       -2.52074        4.24936
H          0.40244        2.06909        0.68476
H          1.68443        2.30046        1.94075
H          1.96047        1.23456        0.61514
H         -3.03747        2.03990        5.46936
H         -2.66600        2.92675        3.98815
H         -2.56414        1.18826        3.98668
H         -1.05021        4.36599        4.85688
H         -1.57263        3.73672        6.39710
H          0.23520        4.91350        7.04178
H          0.91714        3.31326        6.95811
H          2.51740        4.78383        5.99653
H          1.81965        3.86068        4.68907
H          0.17949        6.03407        4.50578
H          2.56929        7.25070        5.93031
H          1.23920        8.12405        5.15282
H          0.91679        7.11625        6.56449
H          1.72312        7.16683        2.95757
H          3.08977        6.27362        3.61247
H          2.42658        5.34478        1.46706
H          2.24459        4.18709        2.72909
H          0.22054        3.79398        1.77825
H         -0.28878        5.03467        2.81994
H         -0.27123        6.65832        0.96630
H          0.85766        4.35501       -0.71332
H          0.19025        5.84992       -1.38944
H          1.63516        5.91641       -0.39287
H         -2.04834        5.68334       -0.41978
H         -1.54081        4.05461       -0.03903
H         -3.61207        4.67677        1.12116
H         -2.34692        4.16908        2.20084
H         -3.56167        6.05778        3.14483
H         -1.88359        6.46838        2.90088
H         -2.54564        7.63432        0.71425
H         -5.36755        7.22655        1.83849
H         -4.93710        8.28437        0.48356
H         -4.74044        6.53761        0.33097
H         -2.05905        8.86292        2.78919
H         -3.36179        9.64590        1.88645
H         -3.73822        8.67863        3.32650
H          0.55519        1.24297        6.34419
H         -1.06376        1.33958        7.05268
H         -0.27482       -0.95545        6.26004
H         -1.85953       -0.45264        5.65601
