31

C          0.66028       -0.12549        0.20146
C          0.41785        0.13139       -1.30180
C         -1.00431       -0.45287       -1.55904
C          0.36848        1.64493       -1.62058
C          1.73608        2.31744       -1.73689
O          2.33876        2.55494       -0.46935
C          2.68988        1.52184       -2.62480
C          2.76365        0.01785       -2.26724
C          3.61970       -0.22029       -1.00250
C          3.54571       -0.71186       -3.39880
N          1.40316       -0.59635       -2.15397
O          0.84918       -0.52973       -3.50882
H          0.70571       -1.20047        0.41356
H         -0.16051        0.28622        0.80247
H          1.56511        0.32906        0.59533
H         -1.02213       -1.53759       -1.39991
H         -1.74190       -0.00608       -0.88121
H         -1.36092       -0.25774       -2.57680
H         -0.15089        1.79231       -2.57748
H         -0.23317        2.16061       -0.86071
H          1.59233        3.30819       -2.18475
H          1.64180        2.59949        0.20703
H          3.69465        1.96072       -2.57177
H          2.35442        1.63225       -3.66519
H          3.53103       -1.25557       -0.65400
H          4.68234       -0.04077       -1.20933
H          3.37913        0.43621       -0.16955
H          3.09294       -0.56723       -4.38583
H          4.57358       -0.33611       -3.47247
H          3.60016       -1.79033       -3.20784
H          0.74110       -1.47908       -3.71039
