12

C          0.90424        0.03657        0.00174
C          0.40153       -0.42124        1.36597
C          0.90424        0.47013        2.49564
N         -1.09672       -0.51840        1.38285
O         -1.65101        0.57085        1.19349
H          0.57719        1.05643       -0.23047
H          0.53537       -0.61934       -0.79481
H          1.99888        0.02067       -0.03062
H          0.74787       -1.44585        1.54409
H          0.57718        1.50852        2.37003
H          0.53535        0.12154        3.46682
H          1.99887        0.46609        2.53148
