38

C          0.96400       -0.69044        0.16857
C          0.45096       -0.39501        1.57143
C          0.90163        0.96156        2.11415
C          0.50884        2.16743        1.25668
C         -0.99355        2.46343        1.07270
C         -1.77579        2.48954        2.40936
C         -1.38460        3.60807        3.37094
C         -1.27358        3.77258        0.28453
O         -0.71159        3.86728       -1.01822
C          0.63585        4.30220       -1.15021
C          0.91499        5.80242       -1.05121
C          0.68622        6.51087        0.28500
N          1.35919        5.91693        1.43406
H          0.46891       -0.06132       -0.57766
H          0.76224       -1.73312       -0.09533
H          2.04409       -0.52520        0.09791
H         -0.64159       -0.46576        1.58354
H          0.82590       -1.17239        2.24788
H          0.53600        1.08654        3.13883
H          1.99732        0.95326        2.19151
H          1.00372        3.04520        1.68276
H          0.95183        2.00059        0.27173
H         -1.40248        1.64041        0.47142
H         -2.84727        2.58426        2.19233
H         -1.66486        1.52923        2.92434
H         -1.64128        4.59324        2.97001
H         -1.92862        3.49640        4.31458
H         -0.31533        3.59535        3.59904
H         -2.35933        3.82874        0.13253
H         -1.02290        4.65051        0.87042
H          1.31596        3.76409       -0.49645
H          0.92055        4.00303       -2.16712
H          1.97052        5.94567       -1.32246
H          0.32420        6.32382       -1.81275
H          1.06615        7.53375        0.18714
H         -0.38381        6.61656        0.49033
H          2.25016        5.50205        1.16169
H          0.79824        5.16958        1.83061
