22

Cl         1.35402        1.66365       -0.10178
C         -0.09461        0.72469       -0.04566
C         -1.30701        1.40576        0.08108
C         -2.51028        0.69606        0.14008
C         -2.52502       -0.70576        0.06020
C         -3.79813       -1.45636        0.12228
C         -4.71517       -1.42453       -0.95318
Cl        -4.39917       -0.53345       -2.40628
C         -5.92293       -2.12870       -0.90268
C         -6.24145       -2.89179        0.21631
C         -5.35736       -2.94941        1.29356
Cl        -5.82582       -3.92782        2.64162
C         -4.14595       -2.23379        1.25713
Cl        -3.07809       -2.28884        2.63398
C         -1.29782       -1.37752       -0.07718
C         -0.08969       -0.67069       -0.12156
Cl         1.36952       -1.58540       -0.26552
H         -1.32413        2.49180        0.13604
H         -3.44187        1.25097        0.24299
H         -6.61875       -2.08995       -1.73870
H         -7.18078       -3.44037        0.24213
H         -1.28013       -2.46443       -0.13874
