24

C          0.87320        0.06517        0.09145
C          0.48862        1.35635        0.70934
N          0.90452        2.55771        0.34494
C          0.29633        3.41641        1.20867
C         -0.49226        2.75838        2.09618
N         -0.37917        1.43824        1.77686
C         -1.23691        3.40277        3.11319
O         -1.94669        2.78829        3.90378
N         -1.06756        4.79134        3.11039
C         -1.78929        5.52110        4.13416
C         -0.26460        5.51779        2.20594
O         -0.17552        6.74717        2.26929
N          0.42580        4.78360        1.23619
C          1.27597        5.45165        0.26788
H          0.47714        0.00164       -0.92643
H          0.49166       -0.78662        0.66300
H          1.96326       -0.01858        0.04317
H         -0.84035        0.66895        2.24565
H         -2.86081        5.32725        4.01901
H         -1.47803        5.15219        5.11720
H         -1.61708        6.59893        4.09052
H          2.29846        5.07425        0.36931
H          0.90478        5.23897       -0.73971
H          1.28804        6.53489        0.41369
