40

C          2.69346        0.44877       -0.06660
C          1.19782        0.38708       -0.17076
C          0.41976        1.48082       -0.08015
C         -1.08287        1.42457       -0.14203
C         -1.65820        0.03072        0.23016
C         -1.62209       -0.28120        1.77302
C         -2.21634        0.89296        2.58162
C         -2.41127       -1.55590        2.20453
C         -1.76583       -2.89725        1.84516
C         -1.48168       -3.83009        3.03379
C         -2.04621       -5.21189        2.70164
C         -2.41342       -5.22077        1.22982
C         -2.63729       -3.76519        0.96172
O         -3.35919       -3.35078        0.06378
C         -0.89683       -0.96985       -0.66271
C          0.61099       -0.98701       -0.38125
H          3.03313       -0.11751        0.80705
H          3.15636        0.01767       -0.96013
H          3.05765        1.47583        0.03663
H          0.86656        2.46426        0.04277
H         -1.50916        2.21700        0.47778
H         -1.38057        1.67462       -1.16951
H         -2.71282        0.02268       -0.07742
H         -0.58327       -0.39862        2.10375
H         -3.21790        1.15195        2.22038
H         -2.29734        0.64499        3.64572
H         -1.58381        1.78340        2.52890
H         -2.52701       -1.51801        3.29537
H         -3.43003       -1.48610        1.80351
H         -0.81538       -2.76054        1.32914
H         -1.91022       -3.47013        3.97522
H         -0.39853       -3.89562        3.19561
H         -2.94352       -5.39176        3.30572
H         -1.33457       -6.00912        2.94082
H         -3.31306       -5.80770        1.03322
H         -1.58420       -5.56876        0.60698
H         -1.30607       -1.97692       -0.60313
H         -1.04628       -0.67838       -1.71263
H          1.11375       -1.47997       -1.22199
H          0.82307       -1.58888        0.50890
