22

O          1.08982       -0.20627        0.08855
C          2.30076       -0.08438        0.06274
O          3.03423       -0.08030       -1.06823
C          3.12160        0.01276        1.29028
C          4.18397        0.91304        1.38340
C          4.92189        0.98242        2.56569
C          4.60143        0.15626        3.66114
S          5.59973        0.35304        5.12220
O          6.52663       -0.75595        5.13743
O          6.06259        1.72464        5.12978
O          4.61347        0.18953        6.38506
C          3.52676       -0.74121        3.57972
C          3.16095       -1.66820        4.68169
O          3.86705       -1.99875        5.61563
O          1.89450       -2.10122        4.57987
C          2.78593       -0.79713        2.38274
H          3.99949       -0.14515       -0.94397
H          4.42613        1.58529        0.56253
H          5.74553        1.69446        2.63360
H          4.53860       -0.78111        6.57419
H          1.73918       -2.68056        5.35622
H          1.94106       -1.48009        2.28445
