39

C          1.54064       -0.56128       -1.28420
C          0.57383       -1.64381       -0.79918
C          1.06124       -2.42899        0.43374
C          0.41424       -2.24820        1.81215
C          0.24858       -0.97902        2.44470
C         -0.12537       -0.90855        3.81164
C         -0.42066       -2.07475        4.52027
C         -0.30631       -3.31289        3.90171
C         -0.60488       -4.52762        4.67460
O         -0.96589       -4.49372        5.84360
C         -0.45104       -5.80441        3.97816
C         -0.03208       -5.79449        2.70737
C          0.10259       -7.11955        2.05876
O         -0.13908       -8.20308        2.56470
O          0.53699       -7.03146        0.79103
O          0.27568       -4.65312        1.98189
C          0.11781       -3.41392        2.57475
C         -0.24404        0.40102        4.55890
C          0.51894        1.53654        3.89315
C          0.12571        1.60165        2.43252
C          0.52157        0.31466        1.71087
H          1.44983        0.37241       -0.72788
H          1.33252       -0.31400       -2.33053
H          2.58256       -0.88967       -1.21898
H         -0.43800       -1.24771       -0.66844
H          0.50356       -2.36005       -1.62970
H          0.93698       -3.47896        0.14012
H          2.14328       -2.30371        0.56556
H         -0.72784       -2.01825        5.56363
H         -0.68595       -6.70290        4.53619
H          0.57549       -7.96457        0.49371
H          0.13718        0.28221        5.58045
H         -1.30792        0.65924        4.62960
H          1.60067        1.37607        3.98241
H          0.28728        2.48360        4.39220
H         -0.95891        1.75218        2.35128
H          0.60058        2.45868        1.94185
H         -0.05522        0.32010        0.78488
H          1.59353        0.35439        1.48822
