29

C          0.58833       -2.27048       -0.72626
C          0.36889       -1.05797       -1.59020
S          1.34655       -0.94997       -3.07111
O          1.51709       -2.29689       -3.57999
O          0.72233        0.07646       -3.87996
C          2.95697       -0.33082       -2.57381
C          3.15159        1.18550       -2.68347
S          2.76987        2.16416       -1.17566
P          0.64987        2.16416       -1.17566
S          0.71220        3.98829       -2.06053
O          0.61618        2.28935        0.47767
C          1.17984        1.29619        1.31746
O         -1.08013        2.16416       -1.17565
C         -1.85734        3.12804       -0.47640
H          0.15084       -3.16107       -1.18306
H          0.09768       -2.11391        0.24199
H          1.65028       -2.44923       -0.54250
H         -0.68225       -0.97590       -1.88593
H          0.60470       -0.18724       -1.00239
H          3.21211       -0.73773       -1.59282
H          3.63918       -0.79433       -3.29946
H          4.21543        1.37159       -2.86886
H          2.61363        1.61612       -3.53255
H          1.56302        0.43611        0.76401
H          2.00756        1.74158        1.87805
H          0.42616        0.94562        2.02538
H         -1.39603        3.44932        0.45925
H         -2.05386        3.99408       -1.11402
H         -2.82275        2.67118       -0.24106
