12

O         -2.29945       -0.95577        0.13132
C         -1.24414       -0.33916       -0.00143
C          0.03260       -1.10482       -0.17546
C          1.27414       -0.29535       -0.02821
O          2.39613       -0.79564       -0.01043
N          1.11423        1.05287        0.04162
C         -0.10086        1.65217       -0.01220
N         -1.22108        1.03181       -0.05071
H          0.02964       -1.54910       -1.17600
H          0.05737       -1.89886        0.57846
H          1.96239        1.60199        0.09675
H         -0.05542        2.75302       -0.01934
