42

C          1.61406       -0.29505       -0.27248
C          1.08624        0.37671        0.97339
C          1.69941       -0.13985        2.25144
O          1.28275       -1.48272        2.45694
C          0.74129        1.84823        0.86518
C         -0.36518        0.84237        1.05467
C         -1.34952        0.59027       -0.05277
C         -2.41273       -0.47203        0.33880
C         -2.72774       -1.35416       -0.88858
C         -3.67888       -0.50877       -1.68322
C         -5.15759       -0.64194       -1.55281
C         -4.42119        0.41462       -0.72846
C         -4.56597        1.85171       -1.17195
C         -3.83031        0.12855        0.69458
C         -4.67828       -0.91888        1.47532
C         -3.73704        1.36293        1.60937
H          1.38876        0.27468       -1.18049
H          1.17958       -1.29416       -0.37973
H          2.70316       -0.39683       -0.22390
H          2.79225       -0.11819        2.19766
H          1.39352        0.44990        3.12211
H          0.31572       -1.49099        2.35777
H          0.98155        2.50189        1.69744
H          0.82667        2.34057       -0.09835
H         -0.85111        0.87337        2.02537
H         -1.81030        1.54297       -0.32438
H         -0.81997        0.27218       -0.95537
H         -2.02271       -1.09504        1.15299
H         -1.83270       -1.62036       -1.45979
H         -3.20777       -2.28991       -0.57791
H         -3.25195       -0.10289       -2.58957
H         -5.76299       -0.31258       -2.39260
H         -5.54365       -1.55223       -1.11580
H         -3.59958        2.26206       -1.48304
H         -5.24336        1.93880       -2.02816
H         -4.97493        2.48780       -0.38342
H         -4.05946       -1.73876        1.85581
H         -5.16560       -0.47351        2.35126
H         -5.48807       -1.36224        0.89598
H         -3.26383        1.10258        2.56349
H         -3.17072        2.19050        1.17605
H         -4.73639        1.75401        1.83634
