39

C         -2.03691       -0.17776        0.01121
N         -0.59404       -0.16396       -0.00775
C          0.23101       -1.23387       -0.15317
C          1.52111       -0.73951       -0.16256
C          2.72105       -1.52863       -0.31417
O          3.77165       -0.94193       -0.93195
N          2.73416       -2.74323        0.12417
C          3.89169       -3.52404       -0.03872
C          4.99420       -3.29430        0.80226
C          6.13441       -4.09224        0.72156
C          6.16976       -5.13257       -0.19367
F          7.26056       -5.90542       -0.27306
C          5.08464       -5.39548       -1.02199
C          3.92179       -4.60458       -0.95432
C          2.77561       -4.94552       -1.81722
C          2.32271       -4.06361       -2.81001
C          1.24853       -4.40329       -3.63824
C          0.61259       -5.63790       -3.49298
Cl        -0.70110       -5.99689       -4.55569
C          1.05225       -6.53169       -2.51285
Cl         0.32343       -8.08126       -2.27830
C          2.12419       -6.18422       -1.68244
C          1.36122        0.66266        0.04769
C          2.46130        1.66978        0.19156
F          3.11390        1.81034       -1.00037
F          2.03057        2.90794        0.54869
N          0.06125        1.00182        0.11492
H         -2.37913        0.37258        0.89092
H         -2.39413        0.29827       -0.90532
H         -2.38828       -1.21145        0.05896
H         -0.14358       -2.24447       -0.25135
H          3.54054       -0.10975       -1.37946
H          4.95411       -2.49114        1.53314
H          6.98550       -3.91441        1.37052
H          5.15268       -6.22738       -1.71812
H          2.81377       -3.10222       -2.94842
H          0.91794       -3.70071       -4.39938
H          2.45485       -6.88427       -0.91667
H          3.19710        1.34059        0.93072
