28

C          0.92284        0.18941        0.10747
C          0.46740        1.47891       -0.50899
O          0.04955        1.58386       -1.65377
O          0.62141        2.49694        0.42648
C          0.22599        3.77249        0.00743
C          1.18434        4.78097        0.02362
C          0.81640        6.08166       -0.32980
C         -0.50932        6.38995       -0.68548
C         -0.89331        7.76225       -1.05621
C         -0.21189        8.45561       -2.07048
C         -0.57543        9.75827       -2.42296
C         -1.62742       10.39065       -1.76533
C         -2.31621        9.72169       -0.75685
C         -1.95205        8.41865       -0.40642
C         -1.45875        5.35197       -0.67176
C         -1.09882        4.04856       -0.31912
H          0.72760       -0.63256       -0.58721
H          0.36575        0.00055        1.02877
H          1.99608        0.23418        0.30790
H          2.20916        4.56356        0.30823
H          1.57164        6.86502       -0.31218
H          0.60476        7.97521       -2.60587
H         -0.03815       10.27551       -3.21354
H         -1.91072       11.40346       -2.03916
H         -3.13641       10.21275       -0.23982
H         -2.49661        7.91816        0.39173
H         -2.49126        5.55379       -0.95039
H         -1.84870        3.26350       -0.31410
