39

C          1.08384        0.28833       -0.31998
C          0.72832       -1.16453       -0.59405
C          1.18814       -2.11976        0.50993
C          0.56632       -1.88145        1.89122
C         -0.96158       -1.99654        1.95279
C         -1.52651       -3.37120        1.56689
C         -1.10933       -4.53671        2.49378
C         -1.60933       -4.35282        3.93996
O         -3.02708       -4.30363        4.01375
C         -1.61182       -5.89371        1.94431
C         -1.00958       -6.33782        0.60343
C          0.51859       -6.40984        0.54885
C          1.12147       -7.37694        1.55512
H          0.54791        0.67544        0.55140
H          0.81323        0.91043       -1.17905
H          2.15845        0.40225       -0.14511
H         -0.35092       -1.25524       -0.75691
H          1.20779       -1.46720       -1.53301
H          0.98401       -3.14552        0.18637
H          2.27890       -2.04839        0.60627
H          1.01539       -2.58639        2.60029
H          0.85430       -0.88633        2.24990
H         -1.29264       -1.73055        2.96280
H         -1.40734       -1.24146        1.29466
H         -2.62100       -3.29826        1.54315
H         -1.22833       -3.58565        0.53606
H         -0.01673       -4.57653        2.54667
H         -1.27848       -5.19390        4.55919
H         -1.20331       -3.44635        4.39884
H         -3.31484       -3.45932        3.62686
H         -1.41394       -6.67714        2.68670
H         -2.70311       -5.85913        1.83018
H         -1.41555       -7.32819        0.36045
H         -1.35760       -5.67214       -0.19447
H          0.81340       -6.72671       -0.45884
H          0.95451       -5.41731        0.69557
H          0.71564       -8.38450        1.42218
H          2.20687       -7.42850        1.42078
H          0.93074       -7.05838        2.58407
