42

C          1.21117        0.26614       -0.30189
C          0.96082       -1.22643       -0.44869
C          1.52950       -2.05856        0.70401
C          0.97514       -1.73342        2.09620
C         -0.55022       -1.78934        2.23363
C         -1.19675       -3.12093        1.83877
C         -0.86490       -4.30069        2.75981
C         -1.56436       -4.26566        4.12445
C         -3.08101       -4.47174        4.07811
N         -3.40262       -5.85647        3.75903
C         -3.75967       -6.24557        2.59805
O         -3.87815       -5.48856        1.49665
C         -4.11692       -7.61839        2.26784
C         -5.38443       -8.11278        2.56238
C         -5.69017       -9.42290        2.20439
C         -4.71084      -10.18120        1.57600
N         -3.46973       -9.72542        1.28749
C         -3.19843       -8.44524        1.64159
H          0.67796        0.68022        0.55878
H          0.86059        0.79488       -1.19416
H          2.27869        0.47518       -0.18178
H         -0.11403       -1.40686       -0.55845
H          1.42605       -1.56715       -1.38168
H          1.36165       -3.11982        0.48507
H          2.61888       -1.92859        0.72945
H          1.43253       -2.41851        2.81964
H          1.31052       -0.73121        2.38982
H         -0.81809       -1.53917        3.26651
H         -0.99129       -0.99766        1.61616
H         -2.27904       -2.96758        1.79852
H         -0.90165       -3.38414        0.81711
H         -1.12567       -5.23242        2.24539
H          0.21766       -4.34856        2.92189
H         -1.12241       -5.04738        4.75569
H         -1.35100       -3.31279        4.62144
H         -3.47829       -4.27548        5.08161
H         -3.57904       -3.74424        3.43177
H         -3.65156       -4.56648        1.66711
H         -6.12175       -7.48547        3.05361
H         -6.66874       -9.84359        2.40721
H         -4.90592      -11.20784        1.27785
H         -2.19832       -8.09854        1.39989
