24

N          2.47926       -0.22016       -0.15514
C          1.09417       -0.09031       -0.01770
C          0.28291       -1.22001        0.01311
C         -1.11106       -1.09406        0.02157
C         -1.73933        0.16281       -0.05679
C         -3.23423        0.14886       -0.07166
O         -3.81156       -0.93659       -0.18541
N         -4.04931        1.23819        0.04863
C         -3.84079        2.67375        0.16139
C         -3.81454        3.40729       -1.17641
O         -3.75481        4.61960       -1.31250
O         -3.83963        2.60565       -2.25877
C         -0.91942        1.28501       -0.17642
C          0.48109        1.15542       -0.16006
H          2.85247       -1.08356        0.22806
H          3.00507        0.59284        0.14910
H          0.72100       -2.21464        0.02755
H         -1.70968       -2.00346        0.06390
H         -5.01210        0.95576       -0.09294
H         -4.70115        3.05802        0.71945
H         -2.93646        2.88719        0.72955
H         -3.81305        3.21164       -3.02807
H         -1.31267        2.27827       -0.32920
H          1.09258        2.04714       -0.27860
