47

C          0.69530       -0.08003        0.01579
C          0.61813        1.42094       -0.22198
N          1.09619        1.89510       -1.53179
C          0.21225        2.42690       -2.48912
O          0.56076        2.95718       -3.54167
O         -1.13523        2.26007       -2.14150
C         -2.12591        2.73983       -3.02144
C         -3.16723        3.46613       -2.45371
C         -4.18707        3.94026       -3.27354
C         -4.16686        3.68192       -4.65038
C         -3.13308        2.93720       -5.22415
N         -3.02106        2.63036       -6.59426
C         -3.81337        2.91951       -7.67369
O         -3.49226        2.52617       -8.79098
O         -4.92717        3.63475       -7.39942
C         -5.85495        3.98447       -8.44796
C         -5.23544        4.90973       -9.48872
C         -6.52730        2.75651       -9.05018
C         -2.11678        2.45116       -4.38936
C          2.50997        2.04185       -1.72398
C          3.04672        3.23903       -2.22019
C          4.41845        3.37472       -2.45196
C          5.27660        2.31047       -2.19717
C          4.76277        1.11583       -1.70325
C          3.39057        0.98580       -1.46292
H          0.48229       -0.65323       -0.89046
H         -0.01888       -0.37465        0.79219
H          1.68067       -0.36806        0.39432
H         -0.42571        1.72073       -0.08336
H          1.17439        1.95492        0.55870
H         -3.18451        3.66902       -1.38754
H         -5.00412        4.51798       -2.84823
H         -4.98319        4.08661       -5.23621
H         -2.20470        2.10288       -6.87685
H         -6.63737        4.55867       -7.93700
H         -4.48073        4.40140      -10.09546
H         -6.00209        5.29891      -10.16638
H         -4.73894        5.75513       -9.00075
H         -6.93143        2.11693       -8.25821
H         -7.34635        3.04871       -9.71490
H         -5.82728        2.14618       -9.62790
H         -1.30525        1.85929       -4.80391
H          2.40632        4.09364       -2.42621
H          4.80904        4.31036       -2.84324
H          6.34020        2.40716       -2.39709
H          5.42482        0.27160       -1.52795
H          3.03202        0.01355       -1.15025
