42

C          1.15434       -0.30096       -0.12325
C          0.82797       -0.75075        1.29300
C          1.25498        0.25306        2.36806
C          0.62983        1.64651        2.25104
C         -0.90003        1.66877        2.22656
C         -1.57878        1.20584        3.52184
C         -1.32678        2.08852        4.75594
C         -1.52180        3.56899        4.53629
C         -2.77424        4.04122        3.98051
C         -2.94439        5.33705        3.69197
N         -1.94801        6.26579        3.93755
C         -2.19181        7.67882        3.63615
C         -2.78171        8.44685        4.81209
C         -1.72698        8.75741        5.82910
O         -0.94870        9.69708        5.78681
O         -1.67631        7.85266        6.82444
C         -0.73156        5.90220        4.51644
O          0.18055        6.68062        4.78313
C         -0.55453        4.45781        4.81501
H          0.60891        0.60750       -0.39547
H          0.87344       -1.08009       -0.83902
H          2.22575       -0.10762       -0.23519
H         -0.24426       -0.96078        1.37186
H          1.33989       -1.70136        1.48393
H          1.02322       -0.16813        3.35328
H          2.34627        0.36304        2.33490
H          0.99898        2.26658        3.07599
H          0.99626        2.12781        1.33627
H         -1.22475        2.68577        1.97950
H         -1.26820        1.04880        1.40172
H         -2.65968        1.15554        3.33974
H         -1.27472        0.17912        3.75772
H         -1.99257        1.76029        5.56474
H         -0.30759        1.89490        5.11602
H         -3.56716        3.32855        3.77774
H         -3.87011        5.69764        3.25356
H         -1.24936        8.13629        3.31111
H         -2.87896        7.73475        2.78245
H         -3.18532        9.40677        4.46901
H         -3.61033        7.90899        5.28547
H         -0.82896        8.05508        7.27490
H          0.40174        4.18040        5.23988
