32

C          1.14086       -0.40233        0.22190
C          0.65057        0.08812       -1.13922
C          1.07245       -0.89305       -2.23560
C         -0.87535        0.28787       -1.17018
C         -1.43088        1.42080       -0.28403
C         -0.70556        2.77024       -0.31001
C         -1.00572        3.62973       -1.54175
C         -0.26467        3.16991       -2.80024
O         -0.52528        4.95286       -1.25658
C         -2.51951        3.69589       -1.75308
C         -3.15358        2.31339       -1.72769
O         -2.83438        1.60528       -0.53092
H          0.70557       -1.37518        0.47372
H          0.88401        0.30285        1.01793
H          2.23087       -0.51197        0.22032
H          1.15036        1.03578       -1.36195
H          0.62823       -1.88161       -2.08158
H          0.76030       -0.52868       -3.22066
H          2.16159       -1.00578       -2.25610
H         -1.20065        0.42166       -2.20538
H         -1.36906       -0.64608       -0.86459
H         -1.37366        1.05657        0.74957
H         -1.05247        3.33753        0.56756
H          0.37291        2.66664       -0.15111
H         -0.39581        3.89440       -3.61252
H          0.81408        3.11470       -2.61517
H         -0.60069        2.20248       -3.17356
H         -0.72937        5.52096       -2.01753
H         -2.76176        4.21353       -2.68884
H         -2.95905        4.30377       -0.95075
H         -2.87239        1.72243       -2.60425
H         -4.24350        2.41694       -1.76067
