25

C          0.81112       -0.05497       -0.41299
C          0.45442       -1.52072       -0.21399
C          1.13242       -2.15276        1.00040
O          0.59201       -1.64327        2.22920
C          1.28039       -0.63190        2.80734
O          2.28742       -0.08090        2.39590
C          0.56495       -0.22225        4.02508
C          0.44101       -1.10740        5.10224
C         -0.20682       -0.68916        6.26664
C         -0.72908        0.60143        6.33300
O         -1.36678        1.05132        7.45094
C         -0.61247        1.48141        5.26014
C          0.04747        1.07400        4.10105
H          0.41320        0.56638        0.39456
H          0.38548        0.31254       -1.35223
H          1.89611        0.08338       -0.45843
H         -0.63404       -1.60364       -0.11565
H          0.75015       -2.07602       -1.11144
H          0.92455       -3.22852        0.99866
H          2.22247       -2.04378        0.95767
H          0.85904       -2.10883        5.04118
H         -0.29066       -1.37399        7.10480
H         -1.33931        0.35660        8.12913
H         -1.02760        2.48308        5.33100
H          0.15403        1.75960        3.26423
