38

C          1.43983       -0.15257        0.12827
C          1.06234        1.18867        0.10642
C         -0.28729        1.53327        0.02185
C         -1.27379        0.53982       -0.05145
C         -2.72980        0.92322       -0.16390
N         -3.26744        1.34964        1.12166
C         -4.70866        1.62697        1.07935
C         -5.64116        0.40022        0.91407
N         -5.18581       -0.77192        1.66913
C         -6.03815       -1.94793        1.46984
C         -5.57382       -2.92919        0.40842
C         -5.90523       -4.28719        0.55283
C         -5.52095       -5.22942       -0.40596
C         -4.80117       -4.83168       -1.52857
C         -4.48170       -3.48976       -1.70108
C         -4.87945       -2.54950       -0.74805
C         -0.88351       -0.80748       -0.01083
C          0.46782       -1.15021        0.07468
H          2.49127       -0.41970        0.19221
H          1.81772        1.96812        0.15726
H         -0.57432        2.58263        0.01538
H         -2.82575        1.72678       -0.90440
H         -3.28142        0.07089       -0.56424
H         -3.08893        0.64077        1.83195
H         -4.96175        2.11479        2.02843
H         -4.93072        2.36156        0.29528
H         -6.64342        0.68954        1.25357
H         -5.72199        0.16958       -0.15247
H         -4.22496       -1.00906        1.43488
H         -6.03836       -2.47756        2.43112
H         -7.08023       -1.66671        1.27443
H         -6.47051       -4.62330        1.41988
H         -5.78623       -6.27547       -0.27563
H         -4.49749       -5.56271       -2.27263
H         -3.92945       -3.16863       -2.58047
H         -4.63561       -1.51308       -0.93731
H         -1.62698       -1.60046       -0.05079
H          0.76284       -2.19613        0.09915
