14

N          1.02205        0.15155       -0.17489
C          0.34501        0.90847       -1.06456
S         -1.31657        0.90750       -1.06342
N          1.04527        1.66110       -1.94918
N          2.43613        1.72182       -2.02055
C          3.05783        2.51465       -2.95242
N          4.41484        2.46669       -2.89605
S          2.31477        3.48022       -4.08733
H          0.48492       -0.40515        0.47944
H          2.02251        0.09917       -0.11332
H          0.52982        2.23192       -2.62011
H          2.97828        1.17152       -1.37374
H          4.94300        3.02736       -3.55505
H          4.93167        1.90553       -2.23648
