32

C          0.69416        0.09270       -0.04201
C          0.20017        0.86369        1.16778
C          0.89787        2.19569        1.36354
O          0.22774        3.22668        1.48146
C          2.41911        2.26661        1.39421
C          3.14313        1.70472        2.64834
C          3.18766        0.15956        2.59254
C          4.62975        2.15168        2.55991
C          2.55860        2.26443        3.95641
C          2.52236        3.65586        4.17634
C          2.04874        4.19491        5.37585
C          1.58794        3.35554        6.38281
C          1.59492        1.97915        6.18528
C          2.07472        1.43960        4.98633
H          0.58525        0.68632       -0.95557
H          0.11988       -0.83120       -0.16338
H          1.74756       -0.18428        0.05019
H         -0.86884        1.06809        1.03047
H          0.28404        0.27382        2.08260
H          2.80560        1.80212        0.47950
H          2.66315        3.33277        1.27943
H          3.59813       -0.18982        1.63817
H          3.82908       -0.24864        3.38341
H          2.20512       -0.29977        2.71397
H          4.73590        3.24101        2.50947
H          5.19985        1.80824        3.43166
H          5.11087        1.74170        1.66383
H          2.87051        4.34846        3.41283
H          2.04188        5.27226        5.51949
H          1.22203        3.77282        7.31672
H          1.23068        1.31900        6.96836
H          2.06533        0.35760        4.89271
