41

O          1.74071        1.35979       -0.60830
N          2.58366        0.56071       -0.17196
O          3.09481        0.63400        0.95444
C          3.01702       -0.53720       -1.04924
C          4.21957       -1.18948       -0.71270
C          4.67680       -2.25215       -1.49474
S          6.31115       -2.87046       -1.15648
O          7.18522       -1.72172       -1.06090
O          6.18239       -3.79764       -0.05211
N          6.80345       -3.77865       -2.48099
C          6.73964       -3.31518       -3.82725
C          6.59127       -4.30568       -4.80428
C          6.41241       -3.95641       -6.14224
C          6.41211       -2.61396       -6.51117
C          6.62520       -1.62738       -5.54830
C          6.81013       -1.97699       -4.20788
C          3.91017       -2.70116       -2.56390
C          2.74892       -2.00834       -2.92920
C          2.28710       -0.88991       -2.21147
N          1.10004       -0.21103       -2.61809
C          0.68299        0.01234       -3.95617
C          0.84960        1.28125       -4.53139
C          0.49121        1.51641       -5.86159
C         -0.02451        0.48068       -6.63675
C         -0.18667       -0.78643       -6.08033
C          0.16416       -1.01722       -4.74706
H          4.81480       -0.86402        0.14082
H          7.64504       -4.31158       -2.25656
H          6.56119       -5.35556       -4.52162
H          6.25745       -4.72948       -6.89071
H          6.25114       -2.33549       -7.54983
H          6.63756       -0.57997       -5.84043
H          6.97756       -1.18350       -3.48633
H          4.20627       -3.55999       -3.15847
H          2.21910       -2.36338       -3.80807
H          1.00050        0.66830       -2.09499
H          1.26211        2.10023       -3.94685
H          0.61665        2.50706       -6.29132
H         -0.30312        0.66147       -7.67183
H         -0.59209       -1.59574       -6.68178
H          0.00778       -2.00442       -4.32148
