35

C          0.94129        0.45618       -0.30440
C          0.59733       -0.98310       -0.65714
C          1.17722       -2.00175        0.32713
C          0.63243       -1.91464        1.75670
C         -0.85869       -2.23773        1.90767
C         -1.22345       -3.68225        1.57188
O         -0.52656       -4.57095        2.45977
C          0.30504       -5.46677        1.88236
O          0.54419       -5.62164        0.69796
C          0.88283       -6.30136        2.94297
C          0.34292       -7.56553        3.17973
C          0.90852       -8.37901        4.16413
C          2.04113       -7.96188        4.87211
N          2.53276       -8.73826        5.92806
C          2.53115       -6.66728        4.66294
C          1.97042       -5.83992        3.68547
H          0.45945        0.76790        0.62668
H          0.59951        1.12997       -1.09655
H          2.02295        0.58550       -0.19514
H         -0.48922       -1.09433       -0.73495
H          1.00305       -1.19926       -1.65301
H          1.01038       -3.00729       -0.07315
H          2.26606       -1.87146        0.36615
H          1.21392       -2.59543        2.38998
H          0.81479       -0.91171        2.15878
H         -1.12934       -2.05057        2.95461
H         -1.46238       -1.55625        1.29926
H         -2.29447       -3.83232        1.74800
H         -1.04201       -3.90137        0.51453
H         -0.51622       -7.91264        2.61235
H          0.46222       -9.34885        4.36813
H          3.50141       -8.54383        6.16280
H          2.36059       -9.73317        5.81838
H          3.36235       -6.29607        5.25723
H          2.37951       -4.84876        3.51101
