85

C          0.80619        0.79284        0.49952
C         -0.21499       -0.21998        0.06497
O         -1.03950       -0.75254        0.80241
O         -0.04941       -0.51645       -1.24938
C         -0.87814       -1.54926       -1.82610
C         -0.55604       -3.01184       -1.38480
O         -0.97706       -3.96413       -2.44712
C         -0.44892       -5.33163       -2.41103
O         -0.63080       -6.21107       -3.55856
C          0.32284       -6.85515       -4.49354
C         -0.50194       -8.14435       -4.93031
O         -0.27502       -9.28397       -4.06673
C          0.22602      -10.47907       -4.47417
C          1.15693      -10.51575       -5.65881
O          0.02355      -11.49053       -3.80880
O          0.38582       -6.04231       -5.70642
C          1.47908       -6.50234       -6.51583
C          1.81595       -5.55243       -7.66758
O          2.53610       -6.35406       -8.62141
C          3.87315       -6.12864       -8.71375
C          4.56431       -7.43737       -8.95998
O          4.42801       -5.06551       -8.48787
C          2.62520       -6.85468       -5.56753
O          3.49959       -5.72933       -5.33516
C          4.83097       -5.89292       -5.61308
C          5.65595       -4.69655       -5.22804
O          5.31931       -6.92699       -6.04985
C          1.87694       -7.33820       -4.29729
O          2.53409       -7.03800       -3.06498
C          3.86840       -7.10247       -2.86570
C          4.36352       -5.76427       -2.38188
O          4.54395       -8.10563       -3.00681
C          0.97699       -5.23127       -2.12131
O          1.69121       -4.60492       -3.25842
C          1.43687       -3.72701       -4.25666
C          0.07818       -3.44240       -4.83589
O          2.39923       -3.13364       -4.74834
C          1.35377       -4.52979       -0.86207
O          1.16088       -5.31828        0.36237
C          0.31342       -5.46468        1.38961
C         -1.09876       -5.01547        1.27878
O          0.71147       -5.98741        2.42880
C          0.92154       -3.09802       -0.94666
O          1.17209       -2.51499        0.33347
C          2.48596       -2.48147        0.71312
C          2.54993       -2.77237        2.17751
O          3.43955       -2.36997       -0.03467
H          0.81252        0.86718        1.59116
H          0.56864        1.76964        0.07350
H          1.80736        0.47942        0.18498
H         -1.93663       -1.31580       -1.67308
H         -0.71386       -1.44579       -2.89638
H         -1.19081       -3.19654       -0.52005
H         -0.99314       -5.83635       -1.60908
H         -1.57452       -7.92466       -4.84861
H         -0.36671       -8.40685       -5.97870
H          2.17410      -10.26913       -5.34249
H          1.17249      -11.53362       -6.06155
H          0.85376       -9.87034       -6.47986
H          1.14988       -7.43776       -6.98318
H          0.89793       -5.19967       -8.15119
H          2.36048       -4.66000       -7.34022
H          4.18799       -7.90774       -9.86923
H          5.64054       -7.27488       -9.04882
H          4.38323       -8.09804       -8.10555
H          3.19088       -7.69032       -5.99009
H          6.36408       -4.45949       -6.02540
H          5.03107       -3.81921       -5.04918
H          6.21578       -4.92482       -4.31689
H          1.89037       -8.42032       -4.34238
H          3.98918       -5.56187       -1.38416
H          5.45108       -5.73896       -2.35316
H          4.03847       -4.96882       -3.05771
H          1.25689       -6.25418       -1.91621
H          0.18363       -3.34469       -5.92237
H         -0.68313       -4.20284       -4.70647
H         -0.30084       -2.49379       -4.47366
H          2.44087       -4.47977       -0.86857
H         -1.72192       -5.69093        1.87820
H         -1.20563       -4.00156        1.66783
H         -1.47243       -5.10204        0.26533
H          1.52968       -2.58885       -1.71076
H          3.29871       -3.54958        2.34988
H          2.76137       -1.86534        2.73861
H          1.58664       -3.18103        2.49965
