18

O          1.01225        0.18652       -0.01700
C          0.46425       -0.93273       -0.56746
C          0.90300       -2.20188       -0.21910
C          0.31460       -3.31735       -0.82428
C         -0.69664       -3.19072       -1.76874
N         -1.21989       -4.29529       -2.32915
C         -2.19745       -4.13628       -3.24878
C         -2.69443       -2.90860       -3.64370
C         -2.15444       -1.76914       -3.06062
C         -1.13527       -1.89172       -2.10711
C         -0.55187       -0.76727       -1.49951
H          1.73959       -0.07815        0.57031
H          1.69186       -2.34980        0.51120
H          0.65515       -4.31477       -0.55608
H         -2.58259       -5.05837       -3.67497
H         -3.48023       -2.84030       -4.38704
H         -2.52602       -0.79040       -3.35286
H         -0.88101        0.23667       -1.75398
