24

C          0.98630       -0.11188       -0.18316
C          0.53687       -0.53541        1.22810
C          1.24519        0.37086        2.23655
C         -1.01342       -0.53047        1.34093
O         -1.52893       -1.30433        0.24498
C         -1.63606       -1.13273        2.63093
C         -1.34257       -0.34279        3.90709
C         -3.16652       -1.24416        2.48639
H          0.60175        0.88225       -0.43590
H          0.64267       -0.81845       -0.94509
H          2.07915       -0.08040       -0.25488
H          0.89427       -1.56335        1.37293
H          0.73369        1.33303        2.34022
H          1.31570       -0.10310        3.21658
H          2.27860        0.57434        1.93351
H         -1.38704        0.49390        1.21363
H         -1.51928       -0.74007       -0.54594
H         -1.25862       -2.15582        2.75822
H         -1.43132        0.73557        3.74115
H         -2.03601       -0.61363        4.71147
H         -0.34599       -0.56348        4.29208
H         -3.44861       -1.90042        1.65706
H         -3.61530       -1.66715        3.39198
H         -3.61683       -0.26057        2.31315
