15

O          0.76336       -0.27546       -0.35381
N          0.69116        1.09741       -0.58905
C          1.51813        1.67853       -1.57785
C          1.30516        3.01211       -1.95129
C          2.14723        3.64144       -2.87206
C          3.22695        2.94900       -3.41459
C          3.46905        1.63255       -3.02925
C          2.62597        1.00647       -2.10668
H          1.50407       -0.34560        0.27813
H         -0.27322        1.42102       -0.68223
H          0.48045        3.57506       -1.52212
H          1.96353        4.67357       -3.15833
H          3.88374        3.43674       -4.13000
H          4.31576        1.09107       -3.44264
H          2.83465       -0.01924       -1.81674
