35

C          0.70272        0.31361        0.21826
C          0.55036        0.44920       -1.29596
O          1.07084       -0.66346       -2.03860
C          2.42391       -0.66942       -2.22773
C          2.90678       -0.71591       -3.53547
C          4.27605       -0.90030       -3.77384
C          5.16713       -1.03882       -2.70538
O          6.47869       -1.32016       -3.04049
C          7.36742       -1.50988       -2.00395
N          8.17489       -0.45093       -1.74595
C          8.99675       -0.54746       -0.67703
C          9.04224       -1.64717        0.16923
C          9.94188       -1.62460        1.36624
F         11.25306       -1.75917        1.03455
F          9.84732       -0.46131        2.06689
F          9.67338       -2.61727        2.25811
C          8.23619       -2.74723       -0.14997
C          7.40120       -2.69453       -1.26623
Cl         6.42018       -4.06156       -1.63341
C          4.67877       -0.94546       -1.40004
C          3.31180       -0.80461       -1.16676
C         -0.94405        0.52109       -1.57978
O         -1.57355        1.53353       -1.86452
O         -1.59391       -0.64908       -1.40450
H          0.64001       -0.73483        0.53065
H         -0.05823        0.88250        0.76257
H          1.67214        0.70239        0.54525
H          0.99238        1.38673       -1.65794
H          2.21929       -0.64442       -4.37434
H          4.64099       -0.96479       -4.79630
H          9.62613        0.32519       -0.50906
H          8.24681       -3.63469        0.48085
H          5.32438       -1.03064       -0.53286
H          2.96656       -0.86814       -0.14291
H         -2.53338       -0.44130       -1.58484
