54

C          0.69657        0.12729       -0.08441
C          0.40063       -1.36506       -0.26486
C          1.42225       -2.17606        0.53767
N         -0.97941       -1.59465        0.16939
C         -1.70477       -2.68564       -0.49533
C         -1.23736       -4.12013       -0.15553
O         -1.52052       -4.36536        1.23069
C         -1.93164       -5.19636       -1.01267
O         -1.03668       -5.71203       -2.02467
C         -1.26959       -5.12828       -3.23628
C         -2.01771       -5.80460       -4.19244
C         -2.30157       -5.18065       -5.41082
C         -1.86172       -3.87130       -5.67322
C         -2.22124       -3.23512       -7.00133
O         -2.01111       -1.83080       -7.08677
C         -0.67900       -1.43144       -7.38673
C         -0.53787        0.08573       -7.21799
O         -0.95452        0.56862       -5.93930
C         -2.32925        0.93118       -5.73786
C         -3.19690        1.15561       -6.97687
C         -2.99328       -0.02377       -4.74708
C         -1.08700       -3.22842       -4.69845
C         -0.74116       -3.87842       -3.51758
H          0.59555        0.43547        0.96227
H          0.01926        0.73959       -0.68993
H          1.71927        0.35947       -0.40398
H          0.51693       -1.58641       -1.33242
H          1.14089       -2.25234        1.59350
H          1.53171       -3.18834        0.14205
H          2.41714       -1.71955        0.49387
H         -1.06869       -1.62591        1.18060
H         -2.75156       -2.58849       -0.17995
H         -1.71154       -2.49491       -1.56919
H         -0.16161       -4.22776       -0.29336
H         -1.04058       -3.68483        1.73211
H         -2.18529       -6.05740       -0.38295
H         -2.87888       -4.84057       -1.43984
H         -2.38483       -6.80556       -3.98972
H         -2.89134       -5.71744       -6.15158
H         -1.71558       -3.74729       -7.82670
H         -3.30156       -3.36936       -7.13753
H          0.03980       -1.93065       -6.73194
H         -0.43674       -1.71416       -8.41654
H          0.52888        0.32614       -7.30023
H         -1.02599        0.62758       -8.03134
H         -2.28104        1.89820       -5.22178
H         -3.23693        0.27908       -7.62885
H         -4.22582        1.40398       -6.69684
H         -2.80223        1.98623       -7.57180
H         -3.13551       -1.02154       -5.16264
H         -3.98034        0.34484       -4.44867
H         -2.37863       -0.13670       -3.84797
H         -0.74994       -2.20400       -4.82355
H         -0.08760       -3.38125       -2.80887
