28

C          0.87891       -0.03211        0.02396
O          0.37999        0.42112       -1.23197
C          0.78461        1.69033       -1.55613
C         -0.19864        2.52626       -2.08033
C          0.10387        3.84008       -2.45836
C          1.42644        4.31020       -2.32702
C          2.39543        3.44030       -1.83001
C          2.10970        2.12387       -1.44036
N          3.58705        4.12608       -1.82721
C          3.42018        5.41410       -2.28167
C          4.34793        6.45098       -2.43300
C          5.80177        6.33669       -2.10160
N          3.89486        7.64051       -2.91286
C          2.58917        7.78487       -3.22681
C          1.63176        6.79265       -3.09954
C          2.07166        5.55750       -2.60396
H          0.33675       -0.94549        0.28720
H          0.69809        0.70563        0.81386
H          1.94172       -0.28480       -0.03716
H         -1.21620        2.15876       -2.18673
H         -0.67562        4.48533       -2.85197
H          2.89661        1.46909       -1.08643
H          4.46808        3.73640       -1.52543
H          5.92832        6.09082       -1.04288
H          6.26512        5.55162       -2.70686
H          6.32404        7.27764       -2.30078
H          2.31704        8.76772       -3.60225
H          0.59819        6.96992       -3.36850
