12

C          0.97930        0.05244        0.08066
C          0.47134        1.42856        0.36679
C         -0.30316        2.13116       -0.47580
C         -0.81790        3.50836       -0.20078
Cl        -0.22299        4.62664       -1.44499
H          0.64697       -0.31751       -0.89441
H          0.62505       -0.64222        0.84833
H          2.07349        0.04970        0.09200
H          0.77074        1.86082        1.31944
H         -0.59747        1.69208       -1.42711
H         -1.91119        3.51626       -0.23197
H         -0.49463        3.88681        0.77347
