30

C          0.87805       -0.09228        0.47085
C          0.46321       -0.15347       -0.99871
C          1.01655       -1.37126       -1.78580
O          0.49152       -2.53101       -1.10338
C          0.44193       -1.43066       -3.22956
O          0.92904       -0.38803       -4.10147
C          0.43750        0.86790       -4.17344
N         -0.77813        1.09475       -3.61668
O          1.05126        1.77613       -4.71860
C          2.54772       -1.44036       -1.81761
C          3.22022       -2.67471       -1.76041
C          4.61627       -2.73476       -1.73697
C          5.36776       -1.56476       -1.79433
C          4.72512       -0.33674       -1.90482
C          3.33039       -0.27666       -1.92924
H          0.51380       -0.95915        1.02920
H          0.45293        0.80365        0.93528
H          1.96401       -0.03733        0.58577
H         -0.63401       -0.19472       -1.01433
H          0.75271        0.79194       -1.46520
H          1.05558       -2.67960       -0.32367
H          0.74031       -2.37880       -3.69674
H         -0.65353       -1.46741       -3.22517
H         -1.13660        2.03573       -3.70376
H         -1.39464        0.37895       -3.27397
H          2.66235       -3.60904       -1.73457
H          5.11720       -3.69742       -1.67651
H          6.45302       -1.60960       -1.76942
H          5.30594        0.57942       -1.97683
H          2.86910        0.70204       -2.04127
