15

O          0.94516       -0.02864       -0.31575
C          2.16210       -0.02929       -0.16114
N          2.88365        1.15499       -0.09153
C          4.15514        1.08100        0.10606
N          4.89250       -0.04519        0.25541
C          4.25990       -1.27584        0.16661
N          5.00243       -2.40157        0.28549
C          4.31835       -3.56889        0.18058
C          2.94886       -3.62026       -0.03338
N          2.19435       -2.50722       -0.15077
C          2.88302       -1.33618       -0.04576
H          4.75615        2.00389        0.16668
H          5.89107       -0.05766        0.40020
H          4.90846       -4.47473        0.27325
H          2.42128       -4.56447       -0.11699
