23

Cl        -2.07463       -0.22586       -0.50795
C         -0.37563       -0.09989       -0.25764
C          0.37995       -1.25619       -0.07298
C          1.75488       -1.15591        0.13125
C          2.36099        0.10116        0.16016
C          1.60174        1.26308       -0.01587
O          2.32673        2.43567        0.02889
C          1.65441        3.63438       -0.01005
C          0.95856        4.06213        1.12367
C          0.31634        5.29769        1.11141
C          0.39166        6.11806       -0.01996
Cl        -0.43601        7.63616        0.05650
C          1.11806        5.70931       -1.15139
Cl         1.22412        6.74536       -2.54232
C          1.75910        4.45918       -1.14121
Cl         2.68346        3.90228       -2.50130
C          0.22643        1.15993       -0.23995
H         -0.09363       -2.23439       -0.09228
H          2.35407       -2.05273        0.26561
H          3.43549        0.17549        0.31592
H          0.91458        3.43423        2.01076
H         -0.23779        5.62181        1.99029
H         -0.39123        2.03567       -0.40486
