38

C          1.32142       -0.29631       -0.21908
C          1.19893       -1.27284        0.94142
C          1.61822       -0.68568        2.29448
C          0.88810        0.59376        2.71825
C         -0.63448        0.46487        2.77956
C         -1.16169       -0.28268        4.00800
C         -1.09065        0.47082        5.34788
C         -1.41959        1.97085        5.36237
O         -2.80574        2.31848        5.38451
C         -3.56130        2.06462        4.20341
C         -3.52067        3.18706        3.14919
O         -2.22719        3.77842        3.03585
C         -3.93854        2.64778        1.77404
O         -5.27296        2.15754        1.77909
H          0.63778        0.55088       -0.10884
H          1.07191       -0.79764       -1.15986
H          2.34197        0.09018       -0.30072
H          0.17166       -1.65004        0.99212
H          1.83058       -2.14443        0.73250
H          1.48415       -1.45421        3.06450
H          2.69358       -0.46976        2.26279
H          1.27580        0.92062        3.69035
H          1.14230        1.39511        2.01390
H         -1.06469        1.46681        2.73424
H         -1.00981       -0.03262        1.87970
H         -2.19970       -0.57650        3.81935
H         -0.62782       -1.23446        4.11789
H         -1.74357       -0.04597        6.06206
H         -0.06556        0.35949        5.72389
H         -1.02806        2.36375        6.30915
H         -0.87737        2.51766        4.58987
H         -3.29085        1.10789        3.76722
H         -4.60412        1.94647        4.52255
H         -4.21243        3.98022        3.45510
H         -2.05492        4.18951        3.90302
H         -3.86649        3.44114        1.02217
H         -3.26365        1.84971        1.43990
H         -5.24442        1.21562        2.02751
