56

C          1.06014       -0.18036        0.19822
C          0.59777       -0.80072       -1.08445
O         -0.51194       -1.28562       -1.21519
O          1.54107       -0.65542       -2.05285
C          1.09059       -0.71075       -3.41356
C          0.82752       -2.08821       -3.92441
C         -0.28662       -2.60818       -4.48275
C         -0.19643       -3.98999       -5.09303
C         -1.59111       -1.96554       -4.67118
C         -2.13428       -0.98845       -3.92929
C         -3.44637       -0.40744       -4.11706
C         -3.83340        0.84076       -3.77085
C         -5.30531        1.18613       -3.79050
C         -2.98940        1.93436       -3.26946
C         -1.69003        2.14872       -3.54524
C         -0.80666        3.21425       -3.03591
C         -0.90976        3.75265       -1.79030
C         -1.83959        3.29877       -0.68744
C         -0.05688        4.91798       -1.32271
C          0.72681        5.61700       -2.42003
C          1.37565        4.58106       -3.31057
C          0.33277        3.66349       -4.01081
C          1.17951        2.49050       -4.55791
C         -0.27803        4.40675       -5.21563
H          0.70043       -0.78334        1.03606
H          0.65447        0.83299        0.26775
H          2.15059       -0.14429        0.24525
H          0.27375       -0.01127       -3.55612
H          1.91846       -0.31211       -4.01199
H          1.71814       -2.71409       -3.88599
H         -0.74166       -4.71779       -4.48534
H         -0.60657       -3.99807       -6.10961
H          0.84196       -4.33260       -5.17966
H         -2.18258       -2.36199       -5.49639
H         -1.61292       -0.59351       -3.07007
H         -4.19262       -1.10355       -4.49872
H         -5.64142        1.46678       -2.78421
H         -5.50424        2.02071       -4.46932
H         -5.92738        0.34051       -4.10469
H         -3.51357        2.64218       -2.63090
H         -1.23049        1.47533       -4.25869
H         -1.30315        3.26931        0.26794
H         -2.67172        4.00382       -0.58539
H         -2.23692        2.29232       -0.82613
H         -0.69145        5.66612       -0.83162
H          0.64283        4.54569       -0.56286
H          1.49508        6.25694       -1.97054
H          0.07111        6.27166       -3.00409
H          2.05300        3.97452       -2.69082
H          2.01210        5.07862       -4.05319
H          0.60917        1.80420       -5.18989
H          2.00955        2.85587       -5.17535
H          1.62293        1.92741       -3.73127
H          0.50636        4.76656       -5.89247
H         -0.93057        3.75055       -5.80285
H         -0.87069        5.27195       -4.90281
