15

C          1.05386        0.03635        0.07712
O          0.49573        1.33154        0.30425
C          0.98062        1.96713        1.40474
O          1.81796        1.51110        2.17175
C          0.35688        3.32973        1.55496
C          0.96546        4.33965        0.59560
S          0.26399        4.23818       -1.08219
H          0.69138       -0.32117       -0.89071
H          0.72026       -0.65812        0.85367
H          2.14684        0.08270        0.03853
H         -0.73296        3.25479        1.47180
H          0.56051        3.65229        2.58422
H          0.76878        5.35313        0.95949
H          2.05059        4.21389        0.52303
H          0.55991        2.94525       -1.29687
