32

C          0.87272        0.28554        0.12466
C          0.39391        0.15544       -1.31322
C          0.86476       -1.13485       -1.99355
C          0.34856       -2.44698       -1.36600
C         -1.18050       -2.53987       -1.44124
C          0.96118       -3.68675       -2.05652
C          2.49058       -3.81235       -1.97794
C          3.09113       -3.78021       -0.55980
C          2.58728       -4.93489        0.30687
C          4.61929       -3.82121       -0.64062
H          0.40835       -0.46386        0.77199
H          0.61191        1.27233        0.52013
H          1.95988        0.17260        0.18835
H         -0.69700        0.24032       -1.34957
H          0.78677        1.00515       -1.88518
H          0.56221       -1.09845       -3.04791
H          1.96050       -1.12613       -1.98827
H          0.62064       -2.47583       -0.30614
H         -1.53307       -2.46131       -2.47499
H         -1.53185       -3.49530       -1.03620
H         -1.65800       -1.74901       -0.85517
H          0.51382       -4.59363       -1.63063
H          0.67559       -3.68481       -3.11673
H          2.77595       -4.75366       -2.46677
H          2.94643       -3.01928       -2.58270
H          2.82055       -2.83720       -0.07082
H          2.80873       -5.90312       -0.15511
H          3.06294       -4.91575        1.29334
H          1.50667       -4.87268        0.46648
H          5.00003       -2.97228       -1.21840
H          5.06290       -3.76766        0.35934
H          4.96915       -4.74255       -1.11842
