19

C          1.18503       -0.26440        0.06059
C          0.37038        0.08736        1.29584
N          0.88277        1.31156        1.88331
C         -0.01752        2.04950        2.63645
N          0.18464        3.36254        2.63249
C         -0.66928        4.09090        3.33611
N         -0.47806        5.45694        3.34433
N         -1.70916        3.61683        3.98806
C         -1.80040        2.29736        3.92058
Cl        -3.14068        1.59987        4.72139
N         -1.01095        1.45483        3.27212
H          1.07975        0.51305       -0.70446
H          0.84081       -1.21055       -0.36783
H          2.24961       -0.35770        0.29823
H         -0.68001        0.18596        0.99534
H          0.44217       -0.72748        2.02552
H          1.34856        1.95808        1.25614
H          0.06971        5.75250        2.54853
H         -1.34220        5.94742        3.52718
