35

C          0.93761       -0.04403       -0.05593
C          0.63924       -0.66771        1.29768
C          1.06963        0.20817        2.47527
C          0.35877        1.56402        2.61309
C         -1.18258        1.55158        2.61524
C         -1.80016        1.01786        3.88879
O         -2.62994        1.60700        4.56911
O         -1.35432       -0.24129        4.15321
C         -1.87721       -0.86453        5.33618
C         -1.17114       -0.34379        6.57532
C         -1.70831        2.94666        2.35145
O         -2.55746        3.20084        1.50578
O         -1.13785        3.86063        3.18617
C         -1.69275        5.18342        3.14662
C         -1.08593        5.99232        2.01622
H          0.38689        0.88975       -0.20002
H          0.64784       -0.73111       -0.85757
H          2.00722        0.16392       -0.16169
H         -0.42525       -0.91425        1.36595
H          1.17638       -1.62190        1.36388
H          0.94898       -0.36584        3.40020
H          2.14794        0.39875        2.39518
H          0.71865        2.02768        3.54159
H          0.71028        2.21495        1.80151
H         -1.55738        0.93872        1.78764
H         -2.96292       -0.73033        5.39985
H         -1.68924       -1.93849        5.23508
H         -1.38751        0.71684        6.73719
H         -1.48848       -0.89810        7.46297
H         -0.08530       -0.43355        6.46814
H         -2.78590        5.14665        3.07544
H         -1.44955        5.65583        4.10432
H         -1.34366        5.56452        1.04261
H         -1.44497        7.02516        2.04603
H          0.00652        5.99455        2.08550
