70

C          1.09443       -0.13241        0.27865
N          0.40923       -0.70203       -0.87509
C         -0.26996       -1.97842       -0.64837
C          0.91492       -0.47776       -2.16097
C          0.19000       -0.87002       -3.29405
C          0.65210       -0.62300       -4.59214
C          1.86713        0.04512       -4.82960
C          2.25430        0.39770       -6.28430
O          1.97498       -0.79313       -7.05603
C          1.26446        1.49867       -6.76959
C          0.58078        1.40810       -7.98743
C         -0.18531        2.48421       -8.47279
C         -0.30711        3.70140       -7.78195
N         -0.96119        4.81130       -8.31783
C         -1.92395        4.67768       -9.40672
C         -1.10103        6.02272       -7.51108
C          0.34438        3.75412       -6.53866
C          1.10200        2.68604       -6.03680
C          3.75433        0.76482       -6.56791
C          4.03128        1.94005       -7.29954
C          5.32138        2.33255       -7.62003
C          6.42535        1.58170       -7.22034
N          7.73232        2.04693       -7.56783
C          8.11690        3.41041       -7.69560
C          9.08189        3.75362       -8.64839
C          9.54791        5.06722       -8.74821
C          9.07640        6.04376       -7.87257
C          8.14960        5.70476       -6.88963
C          7.68556        4.39119       -6.79175
C          6.19962        0.31512       -6.60801
C          7.27167       -0.57915       -6.35564
C          7.08437       -1.80483       -5.72070
C          5.81621       -2.17743       -5.32685
C          4.72982       -1.34121       -5.59808
C          4.87061       -0.08470       -6.24574
C          2.59472        0.45407       -3.70605
C          2.12677        0.18985       -2.40499
H          0.48149       -0.24038        1.18090
H          1.25933        0.94337        0.15102
H          2.05156       -0.63276        0.45879
H         -1.23239       -2.01735       -1.16898
H          0.35254       -2.82052       -0.97170
H         -0.49298       -2.12495        0.41463
H         -0.78428       -1.33939       -3.19456
H          0.02574       -0.92229       -5.43212
H          2.79094       -1.03872       -7.51988
H          0.66138        0.51239       -8.59954
H         -0.64904        2.33889       -9.44224
H         -2.91022        4.40826       -9.01518
H         -2.02020        5.63196       -9.93859
H         -1.63067        3.95386      -10.17028
H         -1.66429        5.82525       -6.59224
H         -0.11928        6.43986       -7.25998
H         -1.63685        6.80669       -8.05820
H          0.30432        4.64704       -5.92226
H          1.60571        2.81995       -5.08169
H          3.24257        2.59416       -7.66509
H          5.45353        3.24674       -8.19560
H          8.42574        1.60905       -6.96663
H          9.45733        2.99858       -9.33443
H         10.27948        5.32679       -9.50874
H          9.43743        7.06599       -7.95019
H          7.79112        6.45894       -6.19410
H          6.98113        4.13930       -6.00306
H          8.28230       -0.35027       -6.67848
H          7.93262       -2.46187       -5.54536
H          5.65674       -3.12682       -4.82105
H          3.75565       -1.70971       -5.28849
H          3.53084        0.99677       -3.81468
H          2.74929        0.52551       -1.58090
