28

C          1.24401        0.13189        0.02527
C          0.64116        1.46493        0.32228
C         -0.58857        1.63553        0.81982
N         -1.12740        2.88264        1.08470
C         -2.46462        3.01831        1.64553
C         -3.49064        2.37898        0.77442
C         -4.17784        1.46995        1.46663
C         -3.68059        1.42666        2.86771
C         -3.22874        0.04162        3.34047
O         -2.70573        0.12573        4.66748
O         -2.52218        2.29765        2.89306
C         -0.39586        4.04203        0.87828
O         -0.81556        5.17871        1.08542
N          0.87501        3.86316        0.39724
C          1.45916        2.67272        0.07148
O          2.58732        2.60680       -0.40074
H          1.27273       -0.03893       -1.05559
H          0.66734       -0.68090        0.48049
H          2.26393        0.06455        0.41692
H         -1.22010        0.77791        1.02749
H         -2.72930        4.06236        1.84146
H         -3.65724        2.64701       -0.25816
H         -4.99721        0.87686        1.08721
H         -4.41817        1.84398        3.56201
H         -4.05870       -0.67093        3.34231
H         -2.42974       -0.35721        2.70716
H         -2.11084        0.90183        4.66883
H          1.41822        4.69663        0.23739
