17

C          1.01015        0.03029        0.03907
C          0.49893        1.46065        0.14293
C          0.99655        2.37335       -0.98157
C          0.48255        1.97942       -2.33870
C         -0.33488        2.75011       -3.07019
C         -0.79758        2.30248       -4.39900
O         -1.53401        2.99990       -5.08522
H          0.61760       -0.47383       -0.84906
H          0.69277       -0.54630        0.91385
H          2.10364        0.00618       -0.00394
H         -0.59750        1.45333        0.16455
H          0.83171        1.87805        1.10100
H          0.69764        3.40322       -0.74901
H          2.09286        2.36734       -1.00652
H          0.82389        1.02164       -2.72568
H         -0.69504        3.71711       -2.73878
H         -0.44550        1.31251       -4.73309
