41

C          1.37525        0.19368       -0.21370
C          1.04181       -0.65814        0.99886
C          1.34144        0.02569        2.33564
C          0.55985        1.31268        2.62537
P         -1.27015        1.31268        2.62537
O         -1.27336       -0.19765        2.91583
C         -1.33089        2.03429        4.50963
C         -1.78678        3.48580        4.63633
C         -3.29227        3.74405        4.80995
C         -3.97264        2.95042        5.91869
C         -3.10015        1.31268        2.62537
C         -3.81433        0.32702        1.68957
C         -3.88452       -1.14167        2.13613
C         -4.26034       -1.35458        3.59594
H          0.73088        1.07530       -0.27209
H          1.22644       -0.38779       -1.12949
H          2.41859        0.52289       -0.18811
H         -0.00648       -0.96673        0.94066
H          1.63502       -1.57968        0.94868
H          1.16609       -0.69248        3.14581
H          2.41299        0.26145        2.37211
H          0.98116        1.73820        3.53860
H          0.81841        2.04786        1.85297
H         -1.94958        1.32555        5.06696
H         -0.32574        1.92862        4.92213
H         -1.29758        3.90185        5.52737
H         -1.42035        4.05955        3.77888
H         -3.42871        4.81034        5.02751
H         -3.82502        3.57439        3.87133
H         -3.52387        3.16809        6.89255
H         -5.03404        3.21722        5.96810
H         -3.92651        1.87149        5.75231
H         -3.52984        1.21325        3.62115
H         -3.35446        2.31228        2.25676
H         -4.84735        0.67925        1.57099
H         -3.35305        0.37031        0.69621
H         -4.62685       -1.65216        1.51005
H         -2.93528       -1.64731        1.93010
H         -5.20507       -0.85876        3.83780
H         -4.37477       -2.42402        3.80174
H         -3.48787       -0.97816        4.27347
