31

C         -3.10701       -0.42692        0.03112
C         -1.63890       -0.11646        0.01063
C         -0.71207       -1.15478        0.01475
C          0.65939       -0.88354       -0.01075
C          1.60875       -2.05191       -0.01556
C          1.09994        0.45503       -0.05191
O          2.46049        0.60313       -0.08592
C          0.19521        1.54435       -0.06135
C          0.61662        3.03449       -0.11731
C          1.40886        3.42535        1.15134
C          1.43651        3.32527       -1.39562
C         -0.58094        4.02655       -0.17083
C         -1.17915        1.20861       -0.02545
H         -3.38546       -0.98575       -0.86821
H         -3.35486       -1.02178        0.91613
H         -3.71250        0.48478        0.06137
H         -1.05690       -2.18675        0.03683
H          1.38863       -2.71508        0.82809
H          1.49984       -2.61453       -0.94861
H          2.65695       -1.75429        0.07549
H          2.70108        1.53303       -0.01839
H          2.34577        2.87923        1.27582
H          1.67034        4.49036        1.13760
H          0.81212        3.24358        2.05350
H          0.86559        3.05593       -2.29259
H          1.68394        4.39113       -1.46948
H          2.38451        2.78655       -1.44694
H         -1.20718        3.85934       -1.05513
H         -1.21298        3.94953        0.72183
H         -0.23189        5.06555       -0.22060
H         -1.94088        1.98348       -0.02978
