21

C          1.05288       -0.06334       -0.10326
C          0.52447       -1.34384        0.47130
O          0.04404       -1.45064        1.59149
O          0.68392       -2.35972       -0.46619
C          0.25151       -3.64077       -0.08693
C         -1.10402       -3.82530        0.21958
C         -1.58511       -5.09845        0.52189
C         -0.71686       -6.18645        0.49498
Br        -1.37335       -7.91574        0.88542
C          0.62917       -6.01350        0.17152
C          1.12964       -4.73419       -0.12719
C          2.56991       -4.65843       -0.47876
O          3.30759       -5.62203       -0.60266
O          3.04888       -3.41659       -0.64991
H          0.74830        0.77185        0.53433
H          0.63274        0.10168       -1.09903
H          2.14356       -0.10152       -0.14722
H         -1.78794       -2.98020        0.23091
H         -2.63515       -5.22942        0.77109
H          1.29281       -6.87653        0.14495
H          3.99201       -3.56453       -0.87481
