62

C          0.24000       -1.54245       -2.31453
C         -0.25902       -0.42940       -2.86518
C         -1.62561        0.10277       -2.68573
O         -2.10486        0.86997       -3.50755
O         -2.22780       -0.33796       -1.55044
C         -3.63559       -0.04227       -1.46118
C         -4.06211        0.85154       -0.28396
O         -3.63576        2.21330       -0.26373
C         -2.25499        2.47130       -0.01990
C         -1.83945        2.81639        1.44282
C         -2.55203        1.86622        2.47150
C         -2.06274        0.42449        2.54883
C         -0.29866        2.61905        1.57950
O          0.60739        3.41314        0.82706
C          0.82185        3.15787       -0.55206
C          1.72592        1.96948       -0.88599
O          1.33020        0.76375       -0.21566
C          2.20474        0.30352        0.71291
O          3.30217        0.77230        0.97509
C          1.68452       -0.86977        1.44957
C          0.51066       -1.47991        1.24740
C         -2.34755        4.25083        1.81840
O         -1.67327        5.38831        1.30666
C         -0.51214        5.89598        1.96784
C         -0.42793        5.97542        3.50128
O         -0.52375        4.70263        4.16713
C         -1.33729        4.67783        5.25166
O         -1.98984        5.61262        5.69525
C         -1.45198        3.32557        5.83922
C         -0.57183        2.32852        5.68402
H         -0.33831       -2.17337       -1.64986
H          1.26109       -1.84630       -2.52974
H          0.34400        0.14509       -3.56152
H         -4.03588        0.35685       -2.39744
H         -4.11538       -1.01729       -1.30935
H         -5.15674        0.90640       -0.32469
H         -3.83711        0.36682        0.66140
H         -1.65039        1.64415       -0.39058
H         -2.03692        3.34424       -0.64355
H         -2.42775        2.27509        3.47791
H         -3.63496        1.87831        2.30190
H         -1.05513        0.36943        2.96987
H         -2.71389       -0.15424        3.21198
H         -2.05094       -0.06476        1.57412
H         -0.03016        2.79569        2.62494
H         -0.06057        1.57415        1.40721
H         -0.11213        3.09008       -1.10069
H          1.31445        4.05513       -0.94786
H          1.65319        1.77833       -1.96268
H          2.76951        2.23278       -0.68968
H          2.35314       -1.22356        2.22746
H          0.21923       -2.33021        1.85613
H         -0.19381       -1.14309        0.49554
H         -3.37398        4.33412        1.43535
H         -2.48247        4.36761        2.89406
H          0.37666        5.41077        1.57780
H         -0.42422        6.92883        1.60638
H          0.56574        6.36764        3.75337
H         -1.16655        6.69500        3.86410
H         -2.33828        3.18726        6.44980
H         -0.74942        1.36659        6.15549
H          0.33475        2.44187        5.09894
