32

C          1.07874       -0.39258        0.20908
C          0.70018        0.36060       -1.06487
C          1.15242       -0.44055       -2.29066
C         -0.80948        0.64593       -1.17046
C         -1.43247        1.46982       -0.02988
C         -0.70359        2.76735        0.30712
O         -2.84260        1.68709       -0.16438
C         -3.41435        2.04267       -1.42392
C         -3.15390        3.48790       -1.88718
O         -1.83176        3.62941       -2.42358
C         -4.13958        3.92837       -2.98205
O         -5.49363        3.89464       -2.55774
H          0.53351       -1.33871        0.28870
H          0.86691        0.19990        1.10365
H          2.15082       -0.61838        0.21804
H          1.24265        1.31379       -1.07704
H          0.66904       -1.42321       -2.32300
H          0.90419        0.08873       -3.21699
H          2.23619       -0.59601       -2.27663
H         -0.97706        1.15591       -2.12448
H         -1.36107       -0.30099       -1.24914
H         -1.36643        0.85560        0.87670
H         -0.38828        3.30997       -0.58525
H         -1.33898        3.43426        0.89884
H          0.20428        2.56237        0.88405
H         -3.12672        1.31575       -2.18944
H         -4.49148        1.91328       -1.27355
H         -3.23560        4.15807       -1.02466
H         -1.73310        3.01328       -3.16637
H         -3.90829        4.95550       -3.28578
H         -4.02798        3.31191       -3.88219
H         -5.86014        3.02135       -2.77640
