37

C          2.50648        1.02963       -0.90749
O          1.79391        1.72839        0.10804
C          2.39261        1.57672        1.39735
C          1.70927        0.47681        2.21629
O          1.74884       -0.77103        1.53961
C          0.54899       -1.27830        0.94597
C         -0.59958       -0.32292        0.57274
O         -1.81874       -0.60819        1.26777
C         -1.92834       -0.08902        2.59626
C         -1.33877       -1.00471        3.68579
O         -2.06429       -2.19511        4.00989
C         -2.44651       -3.02157        2.91452
C         -3.97256       -3.09179        2.76299
O         -4.61614       -1.82517        2.91496
C         -5.00045       -1.57008        4.26224
H          1.86518        0.95532       -1.78903
H          2.78397        0.01832       -0.59628
H          3.40731        1.58987       -1.17264
H          3.46794        1.38091        1.30162
H          2.27412        2.52861        1.92396
H          2.25795        0.35431        3.15565
H          0.69574        0.76753        2.49367
H          0.88691       -1.76474        0.02336
H          0.19646       -2.09892        1.57554
H         -0.37491        0.74066        0.64180
H         -0.84031       -0.51122       -0.48069
H         -1.47368        0.90615        2.64048
H         -2.99416        0.05723        2.78811
H         -0.30851       -1.28982        3.47224
H         -1.30811       -0.42759        4.61708
H         -1.97411       -2.73114        1.97702
H         -2.07504       -4.03278        3.11636
H         -4.20473       -3.45804        1.75669
H         -4.39601       -3.81311        3.47098
H         -5.89913       -2.14527        4.50003
H         -4.21305       -1.81971        4.97833
H         -5.22737       -0.50524        4.36074
