23

C          1.04934        0.04878        0.20154
C          0.55867       -1.37020       -0.00336
C          0.95130       -2.25212        1.15492
O          0.18555       -2.60370        2.04193
O          2.30274       -2.57151        1.04737
C          2.83608       -3.41371        2.03362
C          3.98152       -2.96965        2.69557
C          4.59677       -3.79678        3.63757
C          4.06150       -5.06835        3.89480
N          4.71320       -5.94616        4.87568
O          5.72902       -5.52078        5.44431
O          4.21333       -7.06288        5.07277
C          2.91856       -5.51536        3.21477
C          2.30944       -4.68453        2.27183
H          0.65213        0.47030        1.13085
H          0.73162        0.68647       -0.62897
H          2.14210        0.08487        0.26120
H         -0.53339       -1.38543       -0.09059
H          0.95545       -1.79778       -0.93056
H          4.39432       -1.98764        2.48017
H          5.48691       -3.44284        4.15374
H          2.49618       -6.50029        3.40338
H          1.42897       -5.03062        1.73679
