37

C          0.80223       -0.01175       -0.10337
C          0.26867       -1.26158        0.58470
C          0.89746       -1.51736        1.97350
C          0.60590       -0.35694        2.93809
C          0.46639       -2.88864        2.49843
C         -0.53517       -3.02849        3.46994
C         -0.91657       -4.28800        3.92838
C         -0.31552       -5.43370        3.41192
C          0.67488       -5.34873        2.41916
C          1.29733       -6.62688        1.86998
C          2.08313       -7.36417        2.96235
C          0.25654       -7.57135        1.22865
C         -0.48591       -6.94231        0.05529
C          1.05135       -4.06445        1.98043
O          2.01124       -3.90558        1.01474
H          0.47563        0.89827        0.40804
H          0.43069        0.03762       -1.13206
H          1.89626       -0.01858       -0.13955
H         -0.82271       -1.18824        0.67165
H          0.46344       -2.11221       -0.07966
H          1.99073       -1.54348        1.86649
H         -0.46622       -0.13745        2.99488
H          0.96423       -0.58040        3.94900
H          1.11073        0.55890        2.61397
H         -1.03710       -2.16136        3.88991
H         -1.68605       -4.37670        4.69105
H         -0.63385       -6.40084        3.79444
H          2.02822       -6.38581        1.09111
H          1.43317       -7.72032        3.76864
H          2.59808       -8.23548        2.54262
H          2.84214       -6.71046        3.40645
H          0.76919       -8.47094        0.86515
H         -0.47471       -7.91270        1.97104
H          0.21332       -6.59172       -0.71014
H         -1.15171       -7.67934       -0.40521
H         -1.10201       -6.09613        0.37461
H          1.87608       -4.59454        0.34571
