27

C          0.93941        0.00019        0.14737
N          0.42245        0.21385       -1.20023
C         -1.03364        0.20814       -1.23188
C          1.03301        1.35167       -1.87044
N          0.73178        2.57851       -1.18115
C          1.57396        3.44325       -0.53383
O          1.11135        4.30632        0.20834
C          3.04014        3.34100       -0.69974
C          3.84289        3.38815        0.44532
C          5.23097        3.31238        0.32587
C          5.81656        3.20215       -0.93583
C          5.01879        3.18680       -2.08105
C          3.63006        3.27085       -1.96646
H          0.59285       -0.96254        0.53934
H          0.62696        0.78280        0.84741
H          2.03448       -0.04267        0.14217
H         -1.47509        0.99398       -0.60980
H         -1.40195        0.32938       -2.25659
H         -1.41672       -0.75520       -0.87644
H          2.10819        1.18176       -1.95096
H          0.64768        1.44804       -2.89164
H         -0.24028        2.76619       -0.98681
H          3.38652        3.48866        1.42769
H          5.85515        3.34651        1.21535
H          6.89857        3.14244       -1.02728
H          5.48089        3.11898       -3.06282
H          3.01761        3.29030       -2.86356
