14

N         -2.67085       -1.46500       -0.14859
C         -1.66341       -0.50551        0.01018
C         -1.98328        0.85602       -0.00072
C         -0.97999        1.82855        0.03034
C          0.35932        1.44509        0.02878
C          0.68416        0.09188       -0.02319
Cl         2.33753       -0.38655       -0.06521
C         -0.31856       -0.87876       -0.05411
H         -2.41115       -2.39325        0.17116
H         -3.57555       -1.17554        0.21028
H         -3.02300        1.17232       -0.03340
H         -1.24539        2.88242        0.04040
H          1.13974        2.20061        0.04729
H         -0.04794       -1.92804       -0.12770
