21

C          0.80744       -0.16709        0.07980
C          0.45083        0.48682       -1.25464
C          1.04586       -0.18298       -2.51269
Br         0.23998       -2.01456       -2.64147
C          0.62990        0.52688       -3.82318
C          1.00047        2.00114       -3.93380
C          2.57638       -0.38142       -2.46560
N          3.32075        0.67995       -2.02769
O          3.17547       -1.37825       -2.86026
H          0.40417       -1.17964        0.16394
H          0.38176        0.41964        0.90105
H          1.88898       -0.21193        0.23496
H         -0.64340        0.52299       -1.33705
H          0.78199        1.52971       -1.19399
H          1.07656        0.00559       -4.68082
H         -0.45804        0.45227       -3.95418
H          2.08190        2.15264       -3.89275
H          0.65367        2.39590       -4.89499
H          0.52969        2.59893       -3.14884
H          4.32469        0.55023       -1.99804
H          2.93655        1.53024       -1.64312
