29

O          1.30585        0.34602       -0.35065
C          2.38947       -0.01180        0.08899
O          3.11473        0.74661        0.93815
C          3.06660       -1.29153       -0.32034
C          2.63695       -2.52663        0.48054
O          1.47488       -2.27443        1.26150
C          2.40181       -3.72159       -0.43169
C          3.05689       -4.86148        0.28251
O          2.84922       -6.02502       -0.03603
N          3.86381       -4.37102        1.28281
C          4.71020       -5.18941        2.08114
C          5.23735       -6.38923        1.57521
C          6.04865       -7.21281        2.36078
C          6.32521       -6.86359        3.67745
C          5.80938       -5.68023        4.19941
C          5.02305       -4.83925        3.40219
C          3.76807       -2.99939        1.39060
O          4.44563       -2.22908        2.06116
H          3.94730        0.33608        1.24417
H          2.82031       -1.41470       -1.38382
H          4.15452       -1.14905       -0.31759
H          1.18986       -3.07837        1.73140
H          1.33764       -3.93330       -0.57236
H          2.89765       -3.62836       -1.40360
H          5.05486       -6.69847        0.54840
H          6.45820       -8.12833        1.94034
H          6.93983       -7.51354        4.29532
H          6.01202       -5.41327        5.23402
H          4.62466       -3.93519        3.85674
