28

O          0.86955       -0.04198        0.23085
C          2.04815        0.09371       -0.08430
O          2.89008       -0.95815       -0.21982
C          4.28109       -0.85591        0.15191
C          5.15436       -0.87928       -1.07545
C          5.07533       -1.94590       -1.98184
C          5.82912       -1.93391       -3.15603
C          6.66715       -0.85632       -3.43641
C          6.77290        0.19745       -2.53118
C          6.03286        0.17896       -1.34842
C          2.58707        1.43783       -0.37213
C          3.16197        1.72415       -1.61392
C          3.68684        2.99422       -1.85659
C          3.60440        3.98223       -0.87449
C          2.98449        3.70909        0.34637
C          2.46845        2.43740        0.59842
H          4.46738        0.02146        0.78133
H          4.51501       -1.73305        0.76680
H          4.40846       -2.78317       -1.78346
H          5.75201       -2.76018       -3.85808
H          7.23685       -0.83760       -4.36173
H          7.42269        1.04042       -2.75134
H          6.11675        1.01808       -0.66053
H          3.21768        0.96051       -2.38685
H          4.16004        3.21199       -2.81124
H          4.01180        4.97230       -1.06646
H          2.89890        4.48963        1.09859
H          1.97403        2.22748        1.54414
