25

C          0.93967       -0.03173       -0.11317
C          0.51835       -1.33692       -0.73562
C          1.10607       -2.51652       -0.25804
C          0.76896       -3.77139       -0.78746
C          1.45643       -4.97444       -0.19630
C         -0.20697       -3.85525       -1.79468
N         -0.50420       -5.10316       -2.38670
C         -0.72794       -2.65852       -2.35877
C         -1.61164       -2.73711       -3.58215
C         -0.46187       -1.40897       -1.74023
N         -1.01104       -0.21791       -2.26445
H          0.18108        0.30420        0.60058
H          1.09095        0.73872       -0.87605
H          1.89135       -0.13278        0.41965
H          1.84927       -2.45880        0.53394
H          2.50296       -4.74277        0.03123
H          0.95304       -5.27221        0.72882
H          1.47687       -5.82760       -0.87956
H         -0.40776       -5.88368       -1.74526
H         -1.40603       -5.12667       -2.84675
H         -1.22686       -3.47375       -4.29600
H         -2.63041       -3.01158       -3.29174
H         -1.64546       -1.79642       -4.13925
H         -1.92642       -0.34826       -2.67800
H         -1.02482        0.54533       -1.59531
