49

C          1.11691        0.20171        0.01627
C          1.39626        0.71953       -1.39099
O          1.81815       -0.28918       -2.33346
C          2.81747       -1.13890       -1.96586
O          3.47448       -1.03901       -0.94263
C          2.89797       -2.35967       -2.89579
C          2.21062       -3.58254       -2.23806
C          0.70492       -3.77735       -2.36679
C          0.19772       -5.08133       -2.47512
C         -1.18388       -5.34356       -2.62030
I         -1.61696       -7.35642       -3.08896
C         -2.11201       -4.29220       -2.57179
O         -3.46514       -4.35255       -2.80328
C         -4.26078       -5.34939       -2.31086
C         -5.26979       -5.76321       -3.18291
C         -6.10287       -6.82325       -2.83894
C         -5.93290       -7.47444       -1.61932
O         -6.75839       -8.54483       -1.41296
C         -6.18796       -9.60236       -0.64912
C         -4.99115       -6.99644       -0.70262
C         -4.16169       -5.91662       -1.04104
C         -1.60106       -2.98836       -2.44830
I         -2.85447       -1.28306       -2.48053
C         -0.22361       -2.73948       -2.34653
N          2.45127       -2.17097       -4.27930
C          3.29850       -2.37905       -5.34241
C          2.65362       -2.27123       -6.69738
O          4.48882       -2.64726       -5.21720
H          0.66140       -0.79305        0.00279
H          0.45815        0.88754        0.55722
H          2.04213        0.13197        0.59737
H          0.45272        1.10762       -1.79194
H          2.11419        1.54467       -1.39013
H          3.97388       -2.57738       -2.92648
H          2.68623       -4.46715       -2.68549
H          2.45227       -3.61224       -1.16805
H          0.90351       -5.91251       -2.48777
H         -5.38438       -5.27585       -4.14743
H         -6.86229       -7.16247       -3.53776
H         -5.14754       -9.80141       -0.93111
H         -6.26908       -9.38502        0.41965
H         -6.76437      -10.50999       -0.85482
H         -4.88645       -7.45154        0.27735
H         -3.43173       -5.55681       -0.32227
H          0.09415       -1.71196       -2.26648
H          1.50348       -1.85612       -4.44364
H          3.00292       -1.36337       -7.19516
H          2.93815       -3.14618       -7.29057
H          1.56332       -2.24922       -6.62679
