21

C          0.66613       -0.09392        0.12997
C          0.28915       -1.34795       -0.61141
O         -0.53910       -2.13081       -0.14109
N          0.77536       -1.58585       -1.86680
C          1.75777       -0.91809       -2.62432
C          1.45485       -0.76125       -3.98581
C          2.30581       -0.05197       -4.84074
C          3.49541        0.48781       -4.35949
C          3.85216        0.29049       -3.02818
C          2.99162       -0.42211       -2.17304
N          3.53153       -0.77017       -0.86914
O          4.05905        0.14239       -0.21726
O          3.45510       -1.95207       -0.51060
H         -0.20699        0.24923        0.69510
H          0.93925        0.71562       -0.55037
H          1.47151       -0.29965        0.83617
H          0.21173       -2.28158       -2.34547
H          0.52252       -1.14983       -4.39311
H          2.03218        0.08406       -5.88530
H          4.15540        1.03749       -5.02716
H          4.81090        0.66455       -2.67199
