32

C          0.76354       -0.18501       -0.22584
C          0.19636        0.29447        1.11791
C          1.18883        1.10251        1.96476
O          1.13737        2.50566        1.72550
C          1.83338        2.97813        0.57670
C          3.31272        2.96994        0.76825
C          4.22746        2.05702       -0.01305
O          4.03534        3.42327       -0.39122
C          0.03454        0.41021       -1.43324
O          0.54108       -0.05039       -2.68471
C          1.88532        0.30185       -3.02004
C          2.06510        1.76362       -3.28167
C          3.22517        2.24997       -4.10982
O          1.89250        2.18285       -4.63746
H          0.66794       -1.27725       -0.28635
H          1.83777        0.00622       -0.27458
H         -0.73202        0.85926        0.97765
H         -0.05876       -0.60516        1.69353
H          0.88907        0.98581        3.01310
H          2.21317        0.72239        1.89436
H          1.54005        2.41563       -0.30371
H          1.50864        4.01146        0.41503
H          3.62617        3.35511        1.72807
H          3.80485        1.29966       -0.65769
H          5.18639        1.79311        0.41469
H         -1.01470        0.09520       -1.39551
H          0.01616        1.50208       -1.41730
H          2.57837       -0.04393       -2.24907
H          2.13318       -0.26667       -3.92414
H          1.71800        2.41384       -2.49430
H          3.63287        3.23037       -3.89181
H          3.94605        1.53581       -4.48877
