31

C          1.49355       -0.20022        0.32846
C          1.02599       -1.53404        0.83343
O          1.05212       -1.87459        2.00844
O          0.59069       -2.30463       -0.23979
C          0.07068       -3.54638        0.14291
C          0.94688       -4.63406        0.03540
C          0.50725       -5.91577        0.35970
C         -0.80747       -6.11418        0.77466
C         -1.68557       -5.02976        0.86461
C         -1.26305       -3.72742        0.54406
C         -2.27776       -2.64409        0.69277
O         -3.39239       -2.83624        1.15902
O         -1.78442       -1.43930        0.22813
C         -2.39906       -0.21380        0.55473
C         -2.25384        0.81180       -0.37984
C         -2.73176        2.08729       -0.08118
C         -3.34431        2.33139        1.14895
C         -3.47648        1.30224        2.08284
C         -2.99388        0.02597        1.79196
H          1.16389        0.58056        1.01922
H          1.05398        0.01793       -0.64960
H          2.58221       -0.20144        0.24543
H          1.97282       -4.48153       -0.28913
H          1.18992       -6.75947        0.29189
H         -1.15255       -7.11320        1.03190
H         -2.70899       -5.20914        1.19268
H         -1.76351        0.62288       -1.33004
H         -2.62134        2.89307       -0.80196
H         -3.71409        3.32624        1.38437
H         -3.94688        1.49557        3.04361
H         -3.07892       -0.75741        2.53928
