23

N          0.13897       -0.26869        0.50384
N         -0.18317       -0.84046       -0.80722
P         -1.10070        0.12439       -1.84606
S         -0.34276        1.91593       -2.09225
N         -1.00089       -0.81159       -3.25545
N         -1.96739       -0.52081       -4.32925
C         -2.81071       -0.09643       -1.30576
C         -3.66609        0.99987       -1.11355
C         -5.01039        0.80533       -0.78580
C         -5.51851       -0.48389       -0.64494
C         -4.68087       -1.58371       -0.81597
C         -3.33723       -1.38993       -1.13910
H          0.62672       -0.93962        1.10199
H          0.75329        0.55021        0.41218
H          0.65883       -1.16018       -1.28289
H         -0.05747       -0.71831       -3.63407
H         -2.02146       -1.30729       -4.98326
H         -2.91978       -0.42782       -3.95541
H         -3.29458        2.01536       -1.23027
H         -5.66364        1.66409       -0.64711
H         -6.56709       -0.63237       -0.40009
H         -5.07375       -2.59047       -0.70354
H         -2.69222       -2.25571       -1.28006
