16

C          0.91865        0.01261        0.09506
C          0.32473       -1.16226       -0.18456
C         -1.18613       -1.21510       -0.19714
C          1.06284       -2.40389       -0.48007
C          2.40593       -2.49239       -0.50114
C          0.26037       -3.65057       -0.77678
H          0.33272        0.90244        0.30684
H          1.99262        0.14790        0.12725
H         -1.55826       -1.50923       -1.18409
H         -1.55826       -1.92231        0.55150
H         -1.63503       -0.24229        0.03439
H          2.90428       -3.43136       -0.72461
H          3.06394       -1.65565       -0.30199
H         -0.37140       -3.92033        0.07598
H         -0.37140       -3.50725       -1.65964
H          0.90186       -4.51522       -0.98257
