34

C          1.11694        0.08848       -0.12627
N          0.47940       -1.20864       -0.30789
C         -0.90645       -1.25512       -0.10812
O         -1.52914       -0.28970        0.35194
C         -1.66157       -2.54270       -0.54456
O         -1.54205       -2.86069       -1.91768
N         -1.32119       -3.61309        0.38848
C         -0.11128       -4.04844        0.45853
C          0.18895       -5.05788        1.51803
C         -0.71188       -6.10431        1.74271
C         -0.43913       -7.05615        2.72603
C          0.72105       -6.95350        3.49442
C          1.60959       -5.89805        3.28549
C          1.34626       -4.94732        2.29806
C          0.98920       -3.64438       -0.46171
C          1.78104       -4.68384       -0.98873
C          2.85812       -4.39376       -1.81736
Cl         3.82121       -5.66912       -2.44953
C          3.15743       -3.07652       -2.13285
C          2.36597       -2.04289       -1.62114
C          1.25741       -2.30283       -0.79165
H          0.61757        0.66131        0.66143
H          1.04578        0.65238       -1.06164
H          2.16337       -0.02915        0.17226
H         -2.72448       -2.32307       -0.38787
H         -1.18086       -3.75880       -1.93458
H         -1.62357       -6.18113        1.15499
H         -1.13539       -7.87318        2.89880
H          0.92682       -7.69144        4.26639
H          2.50246       -5.81173        3.90006
H          2.03557       -4.11827        2.16324
H          1.55993       -5.72338       -0.75437
H          3.99416       -2.84185       -2.78657
H          2.61176       -1.02824       -1.92676
