19

C          2.49583        1.17230        0.01051
C          1.24133        0.34943        0.00257
C          1.29565       -1.04932        0.00095
C          0.11861       -1.80452       -0.01203
C         -1.12928       -1.16743       -0.02349
C         -2.38726       -1.94501       -0.04325
O         -3.50215       -1.44935       -0.04416
O         -2.20507       -3.27562       -0.06574
C         -1.18219        0.23257       -0.01847
O         -2.35255        0.94572       -0.02655
C         -0.00741        0.98433       -0.00603
H          2.53905        1.80150       -0.88434
H          2.52412        1.80874        0.90073
H          3.39031        0.54085        0.02046
H          2.25494       -1.56310        0.00855
H          0.18887       -2.88968       -0.01408
H         -3.11111       -3.64925       -0.08240
H         -3.10615        0.31663       -0.03231
H         -0.07184        2.07033       -0.00423
