20

O          1.13499        0.15585        0.36207
C          2.33678        0.11392        0.15174
O          3.21747        0.77291        0.93534
C          2.97744       -0.64584       -0.98436
C          2.48492       -2.09496       -1.06084
C          1.01549       -2.34066       -1.41619
C          0.57867       -1.86551       -2.77402
O          0.11888       -2.56955       -3.65811
O          0.67606       -0.53699       -2.94018
C          3.37930       -2.88407       -1.98428
O          4.05488       -3.84692       -1.66745
O          3.39017       -2.42338       -3.24685
H          4.15374        0.68622        0.67783
H          2.82694       -0.08553       -1.91103
H          4.06399       -0.66472       -0.82772
H          2.63512       -2.53427       -0.06355
H          0.82910       -3.42332       -1.39427
H          0.33802       -1.91240       -0.67153
H          0.30360       -0.37959       -3.83304
H          3.95219       -3.05913       -3.74070
