35

C          0.70218        0.30122       -0.05954
O          0.55798       -0.18482        1.27182
P          1.13465       -1.73333        1.78414
S          0.00604       -2.65333        0.36937
O          2.62013       -1.19017        1.35234
C          3.16198       -0.07660        2.04756
O          1.71132       -3.28184        2.29646
C          2.67143       -4.02641        1.61181
C          2.42999       -5.38895        1.42337
C          3.32989       -6.17680        0.67821
C          4.46324       -5.59397        0.09432
S          5.56145       -6.59599       -0.88261
O          6.13676       -7.59059       -0.00239
O          4.81900       -6.97204       -2.06760
N          6.84958       -5.56276       -1.38251
C          7.82059       -5.18377       -0.32478
C          7.57048       -6.08031       -2.57449
C          4.70911       -4.24542        0.28602
C          3.86205       -3.50015        1.10457
H          0.90121        1.37505       -0.00758
H         -0.23703        0.16533       -0.60406
H          1.52300       -0.17870       -0.59826
H          3.19675        0.77871        1.36590
H          2.56585        0.18168        2.92669
H          4.18217       -0.30988        2.35946
H          1.52864       -5.84218        1.82827
H          3.12435       -7.23510        0.53054
H          8.45708       -6.02839       -0.04885
H          8.45857       -4.37526       -0.70116
H          7.32895       -4.80478        0.57236
H          8.11618       -6.99732       -2.33106
H          6.88264       -6.26860       -3.40281
H          8.28983       -5.33133       -2.92409
H          5.54562       -3.73898       -0.18315
H          4.20017       -2.49527        1.30147
