47

C          1.21207       -0.02561       -0.20246
C          0.55730       -0.66416        0.77615
C         -0.90767       -0.62589        0.96322
O         -1.43174       -0.91780        2.02710
O         -1.53973       -0.28747       -0.18432
C         -2.96988       -0.16695       -0.12161
C         -3.65293       -1.46976       -0.54268
C         -3.62154       -2.59528        0.50068
C         -4.34781       -2.29344        1.81599
O         -5.77157       -2.35013        1.63068
C         -6.39216       -1.17874        1.33966
O         -5.85246       -0.08110        1.28597
O         -7.70927       -1.46458        1.02437
C         -8.31396       -0.45477        0.27482
C         -9.37927        0.24875        0.82543
C        -10.01666        1.22639        0.05655
C         -9.59608        1.49142       -1.25823
C        -10.28994        2.57208       -2.01845
O        -11.09479        3.30817       -1.45385
C         -9.99794        2.82465       -3.44569
C         -9.58520        4.10746       -3.81851
C         -9.27668        4.37529       -5.15184
C         -9.39399        3.36766       -6.11031
C         -9.83388        2.09462       -5.74205
C        -10.14633        1.82116       -4.40926
C         -8.52120        0.76864       -1.79379
C         -7.89586       -0.22149       -1.03628
H          0.69611        0.57546       -0.94520
H          2.29372       -0.08006       -0.26795
H          1.09359       -1.22950        1.53010
H         -3.29596        0.20053        0.85559
H         -3.23541        0.61219       -0.84535
H         -4.69141       -1.25993       -0.81670
H         -3.16265       -1.84403       -1.45033
H         -4.08580       -3.47878        0.04384
H         -2.58192       -2.86506        0.71198
H         -4.10598       -3.08347        2.53562
H         -4.03723       -1.35182        2.27812
H         -9.70865        0.05123        1.84126
H        -10.84095        1.79091        0.48992
H         -9.50185        4.89338       -3.07105
H         -8.94908        5.37013       -5.44329
H         -9.15312        3.57951       -7.14955
H         -9.93856        1.31888       -6.49683
H        -10.50550        0.83305       -4.13374
H         -8.14126        0.96181       -2.79235
H         -7.07807       -0.79263       -1.46593
