18

N          0.99915        0.01858        0.21695
C          0.43727        1.12444        0.76188
N          0.95791        2.28956        0.59386
C          0.33349        3.38162        1.17253
O          0.69321        4.53026        0.92800
C         -0.81490        3.13178        2.14985
N         -1.33660        4.19848        2.86838
C         -2.30633        3.92801        3.68563
C         -2.87447        2.54023        3.87551
O         -3.78648        2.34494        4.66095
N         -2.28158        1.57305        3.10435
C         -1.25506        1.85384        2.23722
N         -0.67682        0.86631        1.48589
H          0.35214       -0.55512       -0.31154
H          1.78256        0.28363       -0.37768
H         -2.77748        4.71319        4.29688
H         -2.64656        0.63610        3.19504
H         -0.82486       -0.08505        1.79021
