70

C          0.48153        3.03502        0.25312
C         -0.23773        3.17437        1.38056
C         -1.64711        2.64111        1.60453
N         -1.65483        1.29714        2.13206
C         -0.51619        0.42154        1.83250
C         -0.83485       -1.03014        2.21383
C         -0.23597       -1.89251        1.08799
O          0.76354       -2.58110        1.26978
N         -0.87970       -1.73909       -0.19187
C         -2.27414       -1.25550       -0.47781
C         -2.45117        0.25670       -0.77113
C         -2.50762        0.78924       -2.20574
N         -3.79397        0.79559       -2.90973
C         -3.57016        1.14459       -4.31832
C         -4.54909       -0.44343       -2.80856
C         -0.41179       -2.46673       -1.29501
O         -0.96764       -3.44961       -1.72812
N          0.39745       -1.64898       -2.08030
C          0.07612       -1.53513       -3.48907
C          0.67246       -0.26371       -4.06710
C         -1.01830       -0.90408        3.75403
C         -2.40014       -0.07996        3.93949
C         -2.72526        1.09766        4.87304
C         -1.89160        2.01912        5.50910
C         -2.42109        3.21636        6.06622
C         -3.80002        3.52189        6.09037
C         -4.61741        2.62853        5.41601
N         -5.96697        2.61647        5.10886
C         -6.18017        1.79741        4.02093
C         -4.94221        1.31162        3.69111
C         -4.07167        1.53755        4.77410
C         -4.38965        0.76757        2.44770
C         -2.84560        0.53168        2.54271
H          0.09457        2.50378       -0.61093
H          1.50781        3.38806        0.19190
H          0.23269        3.66439        2.23099
H         -2.13275        3.31883        2.31510
H         -2.21006        2.70498        0.67013
H         -0.15977        0.49359        0.80521
H          0.35529        0.74375        2.42359
H         -1.80895       -1.48923        2.03881
H         -2.67684       -1.80148       -1.33628
H         -2.91713       -1.56413        0.34865
H         -3.34909        0.61886       -0.25963
H         -1.60996        0.78949       -0.35893
H         -2.21590        1.84970       -2.13896
H         -1.73062        0.31204       -2.79467
H         -2.94405        0.40036       -4.82555
H         -4.51821        1.22304       -4.86073
H         -3.07702        2.12020       -4.40355
H         -3.98213       -1.30444       -3.17450
H         -4.85449       -0.62433       -1.77275
H         -5.47885       -0.37409       -3.38454
H          1.37526       -1.77806       -1.85577
H          0.42123       -2.42595       -4.01903
H         -1.01615       -1.50791       -3.58977
H          1.74211       -0.39284       -4.25225
H          0.18553       -0.00238       -5.01188
H          0.55698        0.58506       -3.38199
H         -1.10575       -1.89309        4.21943
H         -0.18182       -0.39641        4.24886
H         -3.12058       -0.86827        4.20785
H         -0.81292        1.89381        5.47892
H         -1.73353        3.96910        6.45026
H         -4.18074        4.46036        6.47697
H         -6.65825        3.24980        5.48301
H         -7.13438        1.75732        3.51165
H         -4.63236        1.38800        1.58197
H         -4.86483       -0.21396        2.28371
H         -2.89767       -0.21878        1.77744
