52

C          1.23130        0.04876        0.33947
C          1.03756        0.66454       -1.03667
C          1.53551       -0.22706       -2.17667
C          0.75896       -1.52597       -2.39500
C         -0.75779       -1.42895       -2.59866
C         -1.23972       -0.71358       -3.88441
C         -2.62632       -1.27104       -4.26437
C         -3.33203       -0.49741       -5.38353
C         -3.38678        1.02673       -5.15385
C         -4.35629        1.53114       -4.08418
C         -5.17567        0.68240       -3.33046
C         -6.00189        1.17910       -2.31907
C         -6.08370        2.54942       -2.06631
C         -6.98877        3.07642       -0.98183
C         -8.46723        3.15803       -1.37781
C         -9.14580        1.80271       -1.52987
C         -5.31115        3.41508       -2.84456
C         -4.46138        2.91162       -3.83716
C         -1.94438        1.50927       -4.91313
C         -1.29942        0.81282       -3.71651
H          0.65416       -0.87324        0.45275
H          0.89796        0.74908        1.11241
H          2.28679       -0.17619        0.52166
H         -0.01745        0.92055       -1.16932
H          1.59031        1.61104       -1.07309
H          1.54758        0.34648       -3.10873
H          2.58514       -0.48591       -1.98629
H          1.19414       -2.04587       -3.25790
H          0.93768       -2.18408       -1.53503
H         -1.11933       -2.46656       -2.62823
H         -1.23260       -0.98341       -1.71632
H         -0.55087       -0.94942       -4.70604
H         -2.52128       -2.31693       -4.58038
H         -3.25538       -1.29563       -3.36886
H         -4.33682       -0.90545       -5.54473
H         -2.78336       -0.68402       -6.31697
H         -3.73739        1.47249       -6.09573
H         -5.19435       -0.38890       -3.49816
H         -6.58894        0.47586       -1.73282
H         -6.86910        2.46175       -0.08053
H         -6.65176        4.08176       -0.69675
H         -8.99704        3.71215       -0.59349
H         -8.58448        3.72865       -2.30652
H         -8.94499        1.15876       -0.66751
H        -10.22977        1.93015       -1.61127
H         -8.81193        1.28764       -2.43538
H         -5.35344        4.48933       -2.68052
H         -3.87514        3.62057       -4.41838
H         -1.89727        2.59378       -4.76750
H         -1.34270        1.30184       -5.80840
H         -1.84847        1.07016       -2.80278
H         -0.29519        1.22522       -3.60424
