29

C          1.49811       -0.30068        0.17824
C          0.76968        0.02289        1.47507
C          0.89999        1.48892        1.89708
C          0.20482        2.49876        0.98194
O         -1.22617        2.42454        1.09316
C         -1.86352        1.68338        0.15449
O         -1.36101        1.01893       -0.73598
C         -3.30870        1.73752        0.41632
C         -3.92074        0.55839        0.86595
C         -5.29927        0.52476        1.05880
C         -6.06215        1.65394        0.77094
C         -5.44506        2.82511        0.31711
C         -4.05236        2.90826        0.18456
N         -3.49952        4.06204       -0.39899
H          1.13276        0.29598       -0.66108
H          1.35593       -1.35533       -0.07871
H          2.57284       -0.11982        0.27948
H         -0.28432       -0.26071        1.39324
H          1.19467       -0.60452        2.26820
H          0.48218        1.58465        2.90685
H          1.96456        1.74466        1.96226
H          0.47659        3.50715        1.31465
H          0.53635        2.42134       -0.05876
H         -3.32443       -0.33246        1.04828
H         -5.78087       -0.38674        1.40355
H         -7.14370        1.62048        0.87881
H         -6.06918        3.67739        0.05862
H         -2.51678        4.20280       -0.17628
H         -4.04600        4.90419       -0.24731
