42

C          1.25735        0.94093       -0.59933
O          1.45825        1.71844        0.56575
C          1.21867        1.07675        1.81998
C          0.09785       -0.00355        1.90976
N          0.51440       -1.42052        1.84517
C          1.04033       -1.96665        3.09917
C          0.16624       -2.16380        0.73900
O         -0.57232       -1.70936       -0.14146
N          0.51778       -3.46616        0.61484
C          1.67252       -4.06065        1.02983
N          2.77446       -3.53871        1.50486
N          3.61866       -4.50482        2.01194
C          3.12677       -5.72461        1.88814
C          3.70254       -6.95327        2.57796
C          3.64580       -8.21078        1.69356
C          5.17833       -6.70133        2.95152
C          2.91163       -7.20356        3.87803
S          1.65357       -5.76512        0.98011
O          2.40686        0.73815        2.54443
C          3.45248        0.21578        1.73939
H          0.18978        0.81077       -0.79147
H          1.76501       -0.02324       -0.54317
H          1.67462        1.49570       -1.44496
H          0.80959        1.90320        2.41454
H         -0.40625        0.11104        2.87874
H         -0.67531        0.20584        1.16421
H          0.83943       -3.03534        3.19290
H          2.11276       -1.77529        3.16361
H          0.55196       -1.48483        3.95152
H         -0.04018       -3.99392       -0.03928
H          4.16456       -8.05316        0.74115
H          4.12030       -9.06334        2.19432
H          2.61632       -8.51015        1.46755
H          5.28495       -5.83652        3.61729
H          5.60913       -7.56601        3.46984
H          5.78636       -6.50900        2.05990
H          2.92561       -6.31973        4.52779
H          1.86066       -7.43756        3.67169
H          3.33134       -8.04144        4.44569
H          3.12232       -0.64576        1.15517
H          3.85094        0.99307        1.08056
H          4.26032       -0.11051        2.40036
