22

C          0.91788       -0.12449       -0.00689
O          0.30674       -1.37779        0.28821
C          0.72643       -2.38680       -0.53369
C         -0.26718       -3.16276       -1.12425
C          0.08107       -4.23740       -1.94593
C          1.42857       -4.56264       -2.16537
C          1.71686       -5.75549       -3.01448
O          0.86060       -6.63114       -3.12974
N          2.91549       -5.90701       -3.69742
N          3.87058       -4.90677       -3.94651
C          2.41800       -3.81340       -1.51699
C          2.06882       -2.71861       -0.71485
H          0.39679        0.64303        0.57391
H          0.81196        0.12701       -1.06807
H          1.97002       -0.11016        0.29254
H         -1.31427       -2.93518       -0.94288
H         -0.70783       -4.83486       -2.39961
H          2.97006       -6.78707       -4.21069
H          4.22310       -5.03110       -4.90001
H          3.41228       -3.99212       -3.96213
H          3.46666       -4.08903       -1.59218
H          2.85257       -2.16699       -0.20456
