27

N          1.06061        0.13458        0.18107
C          0.39076       -0.50632        1.23962
C          0.76275       -0.15873        2.54255
C          0.04662       -0.62955        3.63880
C         -1.08140       -1.42442        3.44071
O         -1.75762       -1.86187        4.54360
C         -1.50829       -1.76119        2.14409
C         -0.76934       -1.29613        1.04376
C         -1.17083       -1.68845       -0.33383
O         -0.48477       -1.38799       -1.30797
C         -2.38575       -2.49163       -0.54305
C         -2.77698       -2.83373       -1.84629
C         -3.91461       -3.61412       -2.05646
C         -4.66473       -4.05420       -0.96855
C         -4.27691       -3.71217        0.32797
C         -3.13262       -2.92857        0.54238
C         -2.72868       -2.58560        1.91919
O         -3.42991       -2.99540        2.83684
H          0.86133       -0.30832       -0.72567
H          2.05308        0.28267        0.32681
H          1.61450        0.49743        2.70909
H          0.37267       -0.35195        4.63734
H         -1.36362       -1.50542        5.35497
H         -2.19442       -2.49689       -2.70218
H         -4.21250       -3.88008       -3.06813
H         -5.55051       -4.66523       -1.12674
H         -4.86838       -4.06249        1.17275
