43

C          1.03696        0.15036       -0.06105
N          0.07659        1.19737        0.27173
N         -0.35542        1.86103       -0.88752
C         -1.45189        1.30693       -1.53046
C         -2.18021        1.86000       -2.51205
C         -3.33759        1.16045       -3.09826
O         -4.12424        1.59426       -3.92024
O         -3.50520       -0.09175       -2.62599
C         -1.77758        3.21898       -2.94153
O         -2.28940        3.78852       -3.89856
C         -0.71838        3.90955       -2.16385
C         -0.47809        5.25720       -2.43436
C          0.46826        5.93478       -1.68696
F          0.66171        7.23959       -1.94192
C          1.23449        5.29651       -0.69585
N          2.14714        6.02711        0.03479
C          1.65840        7.08606        0.92730
C          2.59240        8.31234        0.85479
N          4.01152        7.96585        1.11169
C          4.84854        9.15701        0.97236
C          4.43654        6.90891        0.15979
C          3.54279        5.63747        0.21795
C          1.00690        3.92646       -0.46881
C         -0.00305        3.22018       -1.15993
H          0.68434       -0.48991       -0.87802
H          1.17342       -0.49786        0.81083
H          2.00975        0.56858       -0.33437
H          0.45633        1.82744        0.97537
H         -1.70373        0.32111       -1.14534
H         -4.30700       -0.39884       -3.10093
H         -1.03191        5.79069       -3.20114
H          1.63134        6.70116        1.95483
H          0.63823        7.40046        0.67671
H          2.25452        9.04560        1.59701
H          2.48845        8.77547       -0.13608
H          5.89753        8.91720        1.17603
H          4.78334        9.59929       -0.02858
H          4.55178        9.91860        1.70260
H          4.41590        7.30345       -0.86603
H          5.47031        6.61542        0.37638
H          3.66841        5.13264        1.18291
H          3.86649        4.94788       -0.57074
H          1.60277        3.43253        0.29170
