20

C          2.95517       -0.00946       -0.26249
C          1.52940       -0.00957        0.28566
C          0.77933        1.25455       -0.15746
C         -0.64666        1.28254        0.37686
C         -1.37343        0.00160        0.03599
O         -2.53917        0.00860       -0.35727
C         -0.65484       -1.28941        0.35551
C          0.77153       -1.26168       -0.17791
H          2.96193       -0.00182       -1.35775
H          3.50456        0.87153        0.08573
H          3.49992       -0.89807        0.07338
H          1.58751       -0.01864        1.38223
H          1.31145        2.14874        0.18801
H          0.75504        1.30140       -1.25416
H         -1.18883        2.12833       -0.05865
H         -0.65281        1.39698        1.46622
H         -1.20225       -2.12435       -0.09423
H         -0.66211       -1.42205        1.44279
H          0.74727       -1.29068       -1.27524
H          1.29795       -2.16464        0.15319
