28

O          1.10854        0.06123        0.31709
C          2.31605        0.00267        0.11732
N          3.11081        1.11914        0.08775
C          4.46904        1.14935       -0.11658
O          5.07463        2.21709       -0.07687
N          5.07108       -0.08309       -0.35335
C          6.50078       -0.10298       -0.62517
C          7.33763       -0.68508        0.50171
C          8.59628       -1.07798       -0.23925
O          9.36411       -2.04393        0.45363
C          8.07498       -1.51936       -1.60996
C          7.93117       -3.02689       -1.80700
O          7.37057       -3.29265       -3.09366
O          6.75772       -0.93281       -1.77141
C          4.34157       -1.26053       -0.32996
C          3.02899       -1.26877       -0.10237
F          2.31008       -2.40521       -0.06797
H          2.65636        2.00647        0.24051
H          6.86101        0.90195       -0.87625
H          7.51968        0.02810        1.31159
H          6.87007       -1.56843        0.95338
H          9.22735       -0.19061       -0.37038
H          8.77891       -2.71318        0.84851
H          8.70240       -1.10959       -2.41002
H          8.89669       -3.53615       -1.74401
H          7.25067       -3.45806       -1.06588
H          6.67788       -2.61764       -3.23410
H          4.87315       -2.18922       -0.50829
