23

O          0.94028        0.02331        0.15436
C          2.15927       -0.00601        0.17277
O          2.93148        0.59149       -0.75373
C          2.95340       -0.69263        1.20182
C          2.31533       -1.32306        2.19925
C          3.11077       -2.02931        3.21843
O          2.34509       -2.54866        4.19768
N          4.39519       -2.14161        3.17724
C          5.10964       -2.84545        4.15955
C          6.27068       -2.26010        4.67569
C          7.08379       -2.94969        5.57947
C          6.74155       -4.24008        5.97690
C          5.59118       -4.83893        5.46803
C          4.78832       -4.14862        4.55537
H          3.89340        0.49361       -0.62828
H          4.03359       -0.68421        1.13361
H          1.23388       -1.33427        2.26200
H          1.39605       -2.38714        4.09056
H          6.55209       -1.26069        4.35555
H          7.98768       -2.48305        5.96140
H          7.37511       -4.78217        6.67392
H          5.32270       -5.84779        5.76908
H          3.90966       -4.63859        4.14697
