44

C          2.37084       -0.00323        0.05570
N          0.94749       -0.07958       -0.27288
C          0.25267        1.16183        0.13073
C         -1.25283        1.10535       -0.19081
N         -1.87490       -0.06549        0.41539
C         -3.22912       -0.04349        0.66885
O         -4.00291        0.78903        0.21460
O         -3.58265       -1.00265        1.55418
C         -4.92353       -0.93906        2.05424
C         -5.13250       -2.23775        2.80343
N         -5.17426       -3.49101        2.29250
C         -5.35013       -4.45697        3.23537
C         -5.48990       -4.17918        4.59819
N         -5.45180       -2.92233        5.10047
C         -5.25230       -1.98231        4.15613
C         -5.20934       -0.53231        4.37147
O         -5.39976        0.00381        5.45050
N         -5.04821        0.04151        3.11795
C         -5.13968        1.41957        2.91210
C         -6.06999        1.93042        2.00785
C         -6.15757        3.31214        1.83122
C         -5.29583        4.13866        2.53743
Cl        -5.35302        5.84100        2.33672
C         -4.39473        3.55076        3.40856
N         -4.31214        2.21519        3.62222
C         -1.19076       -1.33039        0.15315
C          0.32606       -1.24087        0.40015
H          2.83647        0.85664       -0.43838
H          2.54488        0.08466        1.13439
H          2.89356       -0.89566       -0.30587
H          0.38230        1.33118        1.20888
H          0.68859        2.02138       -0.39164
H         -1.42089        1.06079       -1.27321
H         -1.74269        2.01068        0.18692
H         -5.67814       -0.82494        1.26803
H         -5.37609       -5.47856        2.86969
H         -5.63863       -4.97211        5.32416
H         -6.74664        1.28240        1.46265
H         -6.89257        3.72748        1.14835
H         -3.68988        4.14743        3.97974
H         -1.38062       -1.57667       -0.90020
H         -1.62374       -2.13817        0.75127
H          0.78891       -2.16532        0.03386
H          0.50171       -1.18998        1.48257
