29

C          1.04794       -0.08513        0.12298
N          0.28304       -1.27601        0.38809
C         -0.47724       -1.50795        1.50194
O         -1.03434       -2.58765        1.66437
O         -0.52316       -0.41994        2.36101
C         -1.30211       -0.56813        3.51710
C         -2.33115        0.34866        3.71319
C         -3.09396        0.27671        4.87560
C         -2.81520       -0.69923        5.83692
C         -1.76566       -1.61570        5.65274
C         -1.44696       -2.68137        6.68634
C         -0.99013       -2.05914        8.00795
C         -2.63103       -3.62596        6.90889
C         -0.99948       -1.53204        4.48018
H          0.55334        0.79995        0.53020
H          1.15670        0.01997       -0.95913
H          2.03383       -0.19795        0.58088
H          0.38443       -2.08210       -0.21417
H         -2.53943        1.10938        2.96753
H         -3.90635        0.98022        5.03721
H         -3.42637       -0.73652        6.73608
H         -0.61514       -3.29300        6.31225
H         -1.78439       -1.47010        8.47945
H         -0.68856       -2.83823        8.71644
H         -0.13121       -1.39679        7.85246
H         -2.95556       -4.07643        5.96425
H         -2.35240       -4.43802        7.58925
H         -3.49241       -3.10890        7.34552
H         -0.17642       -2.22095        4.31055
