23

Cl        -2.06530       -0.17610       -0.49349
C         -0.36243       -0.06587       -0.27708
C          0.36473       -1.19682        0.08472
C          1.74704       -1.10196        0.25979
C          2.40372        0.11974        0.07668
O          3.76855        0.07603        0.27691
C          4.47304        1.25743        0.23386
C          4.62595        2.02354        1.39791
Cl         3.91178        1.55142        2.89656
C          5.37599        3.19968        1.36777
C          5.99144        3.60327        0.18201
C          5.86800        2.82713       -0.97550
Cl         6.67503        3.39128       -2.39654
C          5.11601        1.64382       -0.95410
Cl         4.96716        0.65340       -2.37019
C          1.66701        1.25001       -0.29164
C          0.28228        1.15524       -0.46648
H         -0.13367       -2.15111        0.23119
H          2.31525       -1.98545        0.54169
H          5.49182        3.80295        2.26584
H          6.57646        4.52096        0.16901
H          2.13718        2.21452       -0.45294
H         -0.28580        2.03689       -0.75190
