26

C          1.05354        0.13090        0.22318
C          0.65071        1.27957       -0.68952
C          1.15508        1.11434       -2.12469
C          0.58192       -0.08596       -2.88464
C         -0.93705       -0.07817       -3.10719
C         -1.51166        1.14251       -3.84708
C         -1.11572        1.19651       -5.29908
O         -1.83106        1.03039       -6.27340
O          0.18677        1.49819       -5.47964
C         -3.01300        1.16744       -3.71297
O         -3.67874        2.13501       -3.37698
O         -3.61881        0.00364       -4.01739
H          0.57287       -0.80571       -0.07344
H          0.75420        0.34562        1.25396
H          2.13824       -0.01764        0.21098
H         -0.43775        1.39929       -0.67416
H          1.07165        2.20678       -0.28176
H          0.95119        2.03699       -2.67918
H          2.24801        1.01680       -2.10372
H          1.08999       -0.15958       -3.85250
H          0.84587       -1.00965       -2.35589
H         -1.19080       -0.99036       -3.66398
H         -1.43390       -0.17830       -2.13342
H         -1.16777        2.06953       -3.37343
H          0.29900        1.50305       -6.45422
H         -4.57702        0.20594       -3.96815
