17

C          1.06787        0.08231        0.08071
C          0.54152        0.91579       -1.07942
C          0.99387        0.39982       -2.42277
C          1.48870        1.27959       -3.38338
C          1.86219        0.77929       -4.62822
C          1.72529       -0.57836       -4.88551
C          1.21317       -1.38258       -3.88281
N          0.84044       -0.92432       -2.66762
H          0.69091       -0.94513        0.04017
H          0.74952        0.51784        1.03326
H          2.16230        0.04104        0.07276
H         -0.55431        0.92740       -1.06241
H          0.87716        1.95059       -0.94194
H          1.58397        2.33976       -3.17318
H          2.25384        1.44584       -5.39113
H          2.00650       -0.99949       -5.84376
H          1.08205       -2.45005       -4.03328
