34

N          2.36753       -0.01393        0.03185
C          0.97906        0.00410       -0.12272
C          0.26566       -1.19109       -0.20163
C         -1.13369       -1.19507       -0.19837
C         -1.86644       -0.00377       -0.05537
C         -3.33624       -0.07080        0.01180
C         -4.08115        0.36639       -1.09875
C         -5.48076        0.35332       -1.09402
C         -6.18680       -0.07056        0.02855
N         -7.57852       -0.19879       -0.01753
C         -5.46919       -0.58878        1.10337
C         -4.06169       -0.57493        1.10857
S         -3.28264       -1.25055        2.55703
O         -4.14474       -0.99815        3.69261
O         -2.85716       -2.59335        2.22348
O         -1.93001       -0.41372        2.80893
C         -1.13358        1.19660        0.04208
S         -1.96500        2.75724        0.19642
O         -2.48737        3.11091       -1.10445
O         -2.80287        2.72260        1.37500
O         -0.81478        3.85056        0.49579
C          0.27111        1.19371        0.03865
H          2.82590       -0.81829       -0.38627
H          2.83092        0.85703       -0.21068
H          0.79354       -2.14024       -0.26382
H         -1.65064       -2.15172       -0.28159
H         -3.57454        0.72913       -1.99329
H         -6.01261        0.68782       -1.98148
H         -8.01941       -0.21121        0.89818
H         -8.02942        0.46221       -0.64330
H         -6.00867       -1.00705        1.95158
H         -1.18314       -1.04986        2.81044
H         -1.19453        4.73501        0.31006
H          0.82155        2.12275        0.16543
