36

C          0.36380       -0.36579        0.31369
C          0.28648       -0.03846        1.79467
O          0.89817        1.20869        2.10736
P          2.62817        1.20869        2.10736
S          2.67067        2.25169        0.37557
O          2.67415        2.27342        3.37457
C          1.54670        2.88317        3.98225
C          0.93844        3.99866        3.14765
O          4.35817        1.20870        2.10736
C          5.04801        0.21475        2.73892
C          6.22414        0.60210        3.38416
C          7.02012       -0.34811        4.02027
C          6.64076       -1.69104        3.97875
S          7.66212       -2.90217        4.78596
C          9.18774       -2.85698        3.88092
O          7.91038       -2.40968        6.12955
O          7.05792       -4.19988        4.56679
C          5.46540       -2.08375        3.32716
C          4.66554       -1.12347        2.69912
H          0.01143        0.47370       -0.29481
H         -0.23932       -1.24651        0.07625
H          1.39511       -0.57872        0.01418
H         -0.76447        0.03666        2.09019
H          0.74776       -0.83058        2.39225
H          0.80331        2.13047        4.26296
H          1.90243        3.32116        4.92105
H          0.48819        3.62463        2.22454
H          0.15048        4.50975        3.70934
H          1.69889        4.73065        2.85931
H          6.51419        1.65108        3.39434
H          7.91929       -0.03157        4.54383
H          9.63736       -1.86693        3.97454
H          9.85751       -3.60447        4.31238
H          8.98938       -3.09724        2.83482
H          5.17152       -3.13149        3.29791
H          3.78055       -1.44958        2.16292
