13

C          0.91904       -0.15873       -0.10397
C          0.41361       -0.03233        1.32723
C          1.01525        1.14855        2.07861
N          0.44115        2.43037        1.55473
O         -0.62180        2.81686        2.05526
O          1.07452        3.01007        0.66326
H          0.56698        0.66804       -0.72797
H          0.55470       -1.08969       -0.55017
H          2.01318       -0.17487       -0.13516
H         -0.68147        0.02468        1.32116
H          0.68121       -0.95101        1.86292
H          0.76325        1.10741        3.14359
H          2.10353        1.20331        1.97624
