56

C          2.41255        1.17887       -0.10486
C          1.14833        0.36872       -0.10664
C         -0.09484        1.00901       -0.08938
C         -1.28398        0.26666       -0.05286
C         -2.60249        0.97948       -0.01336
C         -1.21668       -1.13241       -0.03262
C          0.01690       -1.78031       -0.05212
O         -0.01665       -3.15493       -0.00818
P          1.47380       -4.03325       -0.00942
O          1.61265       -3.78588        1.51014
O          0.62780       -5.48438       -0.17828
C         -0.64386       -5.60473        0.35357
C         -1.73121       -5.26632       -0.45797
C         -3.00295       -5.10914        0.10309
C         -4.13875       -4.55706       -0.70590
C         -3.19309       -5.41723        1.45594
C         -2.11940       -5.83252        2.25961
C         -2.37002       -6.13295        3.70962
C         -0.83285       -5.91100        1.70171
O          2.96426       -4.91156       -0.01067
C          4.14894       -4.21720       -0.04805
C          4.42552       -3.14824        0.80506
C          5.65683       -2.48593        0.74216
C          5.95995       -1.34141        1.66462
C          6.62039       -2.92816       -0.17045
C          6.36601       -4.02397       -1.00770
C          7.43740       -4.50676       -1.93998
C          5.12318       -4.66761       -0.93691
C          1.19576       -1.03093       -0.09582
H          2.44478        1.83319       -0.98156
H          2.46727        1.78779        0.80340
H          3.30134        0.53928       -0.13147
H         -0.13970        2.09699       -0.08918
H         -2.66604        1.60256        0.88473
H         -2.71441        1.61324       -0.89903
H         -3.44039        0.27527        0.00480
H         -2.12672       -1.72680        0.01668
H         -1.55962       -5.01093       -1.49948
H         -4.90270       -5.32211       -0.86691
H         -4.58710       -3.70188       -0.18675
H         -3.79528       -4.19605       -1.68114
H         -4.18124       -5.30166        1.89945
H         -2.78664       -5.25331        4.21290
H         -3.08063       -6.96150        3.80270
H         -1.45113       -6.41595        4.23162
H          0.02308       -6.15538        2.32560
H          3.70928       -2.83799        1.56057
H          6.79159       -1.60062        2.32752
H          6.22273       -0.44987        1.08633
H          5.09692       -1.08896        2.28995
H          7.58811       -2.43062       -0.21283
H          7.74648       -3.69841       -2.61044
H          8.30532       -4.85023       -1.36747
H          7.08818       -5.34053       -2.55719
H          4.91576       -5.53021       -1.56550
H          2.17048       -1.50174       -0.09155
