28

C          0.82957       -0.05354        0.04935
C          0.52416        1.39971        0.31363
N         -0.67577        1.58629        0.94673
C         -1.07431        2.79334        1.20497
C         -2.40702        3.02077        1.88696
O         -3.15746        1.91881        2.25040
C         -2.81913        4.27680        2.11358
C         -2.00820        5.40083        1.73093
C         -0.81953        5.20057        1.15244
N         -0.33631        3.92493        0.88472
C          0.90052        3.78890        0.27896
O          1.63077        4.73659       -0.02433
C          1.34236        2.40436       -0.04823
C          2.66655        2.27522       -0.76976
C          2.60471        2.77761       -2.21721
O          2.87712        4.17038       -2.31864
H          0.50950       -0.32679       -0.96138
H          0.29467       -0.69832        0.75643
H          1.89056       -0.28895        0.16620
H         -3.97114        2.22111        2.68283
H         -3.76818        4.48887        2.59323
H         -2.37535        6.40373        1.92436
H         -0.19055        6.03910        0.86248
H          3.44015        2.81458       -0.20924
H          2.98527        1.22944       -0.79757
H          3.37032        2.26880       -2.81176
H          1.63406        2.57295       -2.68134
H          2.45620        4.62229       -1.55596
