18

C          1.03006       -0.03859        0.19340
O          0.35577       -0.16798        1.43983
C          0.73178       -1.31875        2.11553
N          2.03252       -1.67597        2.05744
C          2.34727       -2.75893        2.76416
N          1.49901       -3.49169        3.48735
C          0.22503       -3.10259        3.51957
N         -0.62112       -3.85112        4.23713
C         -1.92056       -3.47826        4.28022
C         -2.38953       -2.36603        3.62142
N         -1.57119       -1.59049        2.88994
C         -0.25504       -1.97187        2.84268
H          0.60565        0.82597       -0.32604
H          0.86203       -0.92135       -0.43396
H          2.10074        0.14657        0.32750
H          3.38487       -3.07646        2.75191
H         -2.57614       -4.11196        4.86688
H         -3.43108       -2.06929        3.65887
