58

C          0.31481        0.62896        0.08650
C          0.11933        0.17176        1.52711
N          0.92822        0.91195        2.49159
C          0.37185        0.94425        3.84378
C          0.38358       -0.35783        4.63436
C          2.38485        0.84628        2.38806
C          3.16051       -0.41395        2.82179
C          2.91950       -1.71009        2.03482
C          3.46185       -1.65375        0.59409
C          4.97857       -1.89162        0.59938
N          2.85074       -2.69897       -0.23390
C          1.97950       -2.43572       -1.31268
C          0.76666       -3.19561       -1.42851
C          0.33219       -4.19522       -0.51454
C         -0.85295       -4.90869       -0.71336
C         -1.62868       -4.63728       -1.82736
Cl        -3.08375       -5.51386       -2.09745
C         -1.23748       -3.64951       -2.72208
C         -0.07089       -2.92408       -2.53125
N          0.18463       -1.97463       -3.43164
C          1.29420       -1.24197       -3.31901
C          1.48205       -0.25180       -4.27644
C          2.59990        0.58589       -4.27843
C          3.57757        0.40357       -3.32004
O          4.72471        1.13008       -3.17514
C          4.88019        2.26310       -4.01907
C          3.41331       -0.61741       -2.38111
C          2.25092       -1.43175       -2.30536
H         -0.00916        1.66652       -0.04237
H         -0.28661        0.00574       -0.58373
H          1.35226        0.55563       -0.24177
H         -0.94448        0.32769        1.74885
H          0.27013       -0.90523        1.59866
H          0.87688        1.72215        4.43021
H         -0.66901        1.28726        3.77589
H          1.35039       -0.52499        5.11447
H         -0.35728       -0.30773        5.43941
H          0.14167       -1.22570        4.01495
H          2.69332        1.12242        1.37436
H          2.78034        1.67286        2.99588
H          4.22941       -0.16874        2.76695
H          2.98792       -0.61049        3.88171
H          3.41685       -2.52836        2.57370
H          1.86336       -1.97978        2.05341
H          3.25002       -0.66394        0.19125
H          5.23916       -2.78754        1.17411
H          5.37109       -2.04699       -0.41054
H          5.50797       -1.03995        1.03654
H          2.69934       -3.57262        0.25373
H          0.90690       -4.42806        0.37599
H         -1.15829       -5.66817        0.00144
H         -1.85387       -3.43091       -3.59091
H          0.72585       -0.12275       -5.04817
H          2.67389        1.34806       -5.04583
H          5.01310        1.95381       -5.06025
H          4.04159        2.95993       -3.91572
H          5.78742        2.78883       -3.70554
H          4.23067       -0.76310       -1.69015
