17

O          0.99568       -0.12900        0.03023
C          2.21785       -0.10268       -0.01236
C          2.98731       -1.36562       -0.03306
C          4.32337       -1.34137       -0.04465
C          5.08039       -0.11602       -0.03611
C          4.51719        1.09896       -0.03898
N          5.16952        2.31157       -0.04426
C          4.45475        3.48047       -0.08384
C          3.11133        3.48540       -0.10067
N          2.34313        2.33887       -0.07611
C          2.99984        1.20697       -0.04514
H          2.41441       -2.28429       -0.03574
H          4.88237       -2.27380       -0.06029
H          6.16256       -0.21361       -0.03344
H          6.18070        2.34176       -0.05657
H          5.03987        4.39354       -0.10322
H          2.56280        4.42243       -0.13469
