34

O          0.82239        0.07630       -0.11408
C          0.37629        0.64101       -1.37025
C          0.97961        2.08990       -1.44239
C          0.21456        3.24498       -1.70407
C          0.80211        4.51373       -1.72823
C          2.17282        4.64574       -1.55403
F          2.73120        5.86027       -1.59067
C          2.96940        3.52743       -1.35617
C          2.37949        2.26322       -1.29438
C          1.01258       -0.18990       -2.47205
C          1.58222       -1.43514       -2.25772
N          2.15229       -2.18731       -3.22318
C          2.13525       -1.66091       -4.45528
N          1.63128       -0.46622       -4.79553
C          1.07712        0.24081       -3.78933
C         -1.17230        0.56517       -1.23907
C         -1.77901        1.39769       -0.25435
C         -3.16520        1.50720       -0.09830
C         -4.00801        0.73382       -0.87612
C         -3.45552       -0.17014       -1.77391
C         -2.06101       -0.27250       -1.94977
Cl        -1.61583       -1.53507       -3.04180
H          1.27970        0.76715        0.39090
H         -0.85633        3.19072       -1.88828
H          0.19780        5.40185       -1.89073
H          4.04437        3.64663       -1.25709
H          3.03008        1.39905       -1.15210
H          1.58401       -1.89737       -1.27318
H          2.56764       -2.25733       -5.25059
H          0.66499        1.19905       -4.09592
H         -1.15716        2.00822        0.40100
H         -3.58036        2.19739        0.63219
H         -5.08680        0.80671       -0.76828
H         -4.12431       -0.81686       -2.34074
