56

C          0.61351       -0.73608       -0.24506
C         -0.06393       -1.24037        1.01770
C          0.61415       -0.88885        2.35349
N          0.45678        0.49159        2.82008
C          0.50040        0.61515        4.28407
C          1.82793        0.35486        4.98480
C          1.21569        1.52948        2.10863
C          2.76573        1.51077        1.98521
C          3.26925        1.64801        0.55800
O          4.13553        0.54288        0.31461
C          4.39722       -0.05129        1.58478
C          5.76126        0.41182        2.10033
C          6.90827       -0.09688        1.22495
C          6.89236       -1.63433        1.05451
C          8.05953       -2.18145        0.14938
C          9.42747       -1.72388        0.69828
C          8.05884       -3.72664        0.15336
C          7.94645       -1.70799       -1.31319
C          5.49923       -2.10383        0.58438
C          4.37628       -1.57220        1.46577
O          3.38660        0.33787        2.50338
H          0.39922        0.31803       -0.42895
H          0.23491       -1.28492       -1.11427
H          1.69545       -0.88125       -0.20899
H         -1.10925       -0.90973        1.02870
H         -0.09380       -2.33614        0.95144
H          0.12832       -1.54878        3.08599
H          1.65438       -1.21430        2.34051
H          0.15008        1.61576        4.56623
H         -0.24732       -0.06584        4.71194
H          2.55347        1.14583        4.77496
H          1.67761        0.34294        6.06964
H          2.25687       -0.61193        4.70532
H          0.76988        1.64833        1.11760
H          0.95648        2.49664        2.56508
H          3.15011        2.35147        2.57679
H          3.84219        2.57324        0.43273
H          2.48350        1.65189       -0.20249
H          5.90283        0.07105        3.13465
H          5.80145        1.50765        2.13463
H          7.84585        0.22482        1.68951
H          6.84980        0.39575        0.24802
H          7.04318       -2.05762        2.05971
H          9.53579       -1.98634        1.75643
H         10.25108       -2.19961        0.15311
H          9.56647       -0.64277        0.59751
H          7.17485       -4.13785       -0.34436
H          8.93152       -4.12387       -0.37802
H          8.08716       -4.11879        1.17608
H          7.03148       -2.07184       -1.79096
H          7.95800       -0.61676       -1.39102
H          8.78633       -2.08223       -1.91019
H          5.31308       -1.78364       -0.44663
H          5.43849       -3.19665        0.59565
H          4.43717       -2.02513        2.46443
H          3.42178       -1.90274        1.04197
