42

C          1.31646        0.36537        0.11034
C          1.13277        0.55706       -1.38834
C          1.62171       -0.62370       -2.23530
C          1.04236       -1.99344       -1.86960
C         -0.48275       -2.05276       -1.80991
C         -1.19404       -2.05127       -3.16518
C         -1.17067       -3.38319       -3.92063
C         -1.61459       -4.65470       -3.17092
N         -3.04496       -4.86643       -2.98554
C         -3.44716       -6.27672       -2.82615
C         -2.97828       -7.03643       -1.57463
O         -3.83046       -6.80299       -0.46075
C         -3.89327       -3.89947       -2.29321
C         -3.57117       -3.41434       -0.86746
O         -2.92068       -4.39116       -0.06662
H          0.70770       -0.45986        0.49201
H          1.00971        1.27063        0.64435
H          2.36340        0.16363        0.35591
H          0.07770        0.76234       -1.60185
H          1.68376        1.45369       -1.69600
H          1.40869       -0.40841       -3.28878
H          2.71411       -0.68534       -2.15144
H          1.42014       -2.74413       -2.57349
H          1.43345       -2.28477       -0.88666
H         -0.75138       -2.94382       -1.24106
H         -0.86914       -1.21621       -1.21925
H         -2.23278       -1.74357       -3.01656
H         -0.75875       -1.27783       -3.80971
H         -1.77340       -3.27851       -4.83269
H         -0.14317       -3.55008       -4.27075
H         -1.24961       -5.47713       -3.80338
H         -1.06248       -4.76891       -2.23580
H         -4.53946       -6.35302       -2.90022
H         -3.06642       -6.81966       -3.70075
H         -3.02122       -8.11154       -1.77698
H         -1.94482       -6.80255       -1.30073
H         -3.64576       -5.88886       -0.15402
H         -4.00596       -3.01462       -2.93082
H         -4.91557       -4.30020       -2.26146
H         -2.96216       -2.50937       -0.87566
H         -4.50550       -3.15230       -0.35903
H         -2.02248       -4.48756       -0.43142
