35

C          0.89215        0.27669        0.21477
C          0.27502        1.66396        0.42283
N          0.59997        2.53559       -0.71027
C          0.15917        2.46114       -2.00052
O          0.97217        2.72523       -2.89181
C         -1.29373        2.17905       -2.32442
C         -1.67184        0.73934       -2.56827
C         -2.97499        0.31992       -2.25364
C         -3.38271       -0.99274       -2.49167
C         -2.49748       -1.90035       -3.06598
C         -1.21169       -1.49016       -3.41458
C         -0.80435       -0.17413       -3.18019
C         -1.17324        1.70337        0.87205
C         -1.75255        2.93597        1.22450
C         -3.07739        3.01032        1.66205
C         -3.84320        1.85260        1.76896
C         -3.28397        0.62149        1.44125
C         -1.96034        0.54726        0.99940
H          0.41234       -0.27076       -0.60019
H          0.81615       -0.33080        1.12328
H          1.95627        0.36270       -0.03494
H          0.83832        2.10359        1.25900
H          1.57452        2.81081       -0.72358
H         -1.92247        2.62636       -1.55008
H         -1.52823        2.74132       -3.23883
H         -3.68171        1.01922       -1.80913
H         -4.39207       -1.30170       -2.23309
H         -2.81331       -2.92283       -3.25432
H         -0.52560       -2.19382       -3.87927
H          0.19746        0.12670       -3.48201
H         -1.16988        3.85251        1.14901
H         -3.51062        3.97315        1.92024
H         -4.87398        1.90851        2.10870
H         -3.87726       -0.28603        1.52158
H         -1.56802       -0.43351        0.74005
