14

O          1.02831        0.03334       -0.07301
C          2.24543        0.07480       -0.05959
O          2.99613        0.39811       -1.13321
C          3.04184       -0.28588        1.12352
C          2.67148       -1.37918        1.90572
C          3.43650       -1.70283        3.02357
C          4.53904       -0.91401        3.31746
N          4.91083        0.16173        2.58585
C          4.14165        0.46417        1.51349
H          3.95033        0.20552       -1.05875
H          1.79531       -1.97016        1.64871
H          3.17709       -2.54759        3.65287
H          5.16688       -1.12838        4.17854
H          4.44452        1.35975        0.97783
