37

C          1.10605        0.01712       -0.00731
N         -0.06260        0.08024       -0.07578
C         -0.83830       -1.18332       -0.07773
C         -0.01599       -2.48232       -0.03060
C         -0.92218       -3.71295        0.00433
C         -1.90903       -3.65191        1.16620
C         -2.72487       -2.36337        1.14256
C         -1.83027       -1.12701        1.09403
N          2.27604       -0.02910        0.06349
C          2.98289        0.26322       -1.19761
C          3.48606        1.71306       -1.17111
C          4.36423        2.02715       -2.38042
C          5.52406        1.04361       -2.50654
C          5.03685       -0.40226       -2.52295
C          4.16012       -0.71419       -1.31309
H         -1.41897       -1.18844       -1.01039
H          0.64072       -2.54834       -0.90653
H          0.62948       -2.49566        0.85722
H         -0.31078       -4.61849        0.08819
H         -1.47446       -3.78685       -0.94067
H         -1.36147       -3.71982        2.11427
H         -2.58258       -4.51541        1.12413
H         -3.36836       -2.31848        2.02853
H         -3.38702       -2.36763        0.26791
H         -1.28118       -1.03662        2.04043
H         -2.45595       -0.22976        1.01217
H          2.33081        0.12331       -2.07346
H          2.63549        2.40495       -1.14847
H          4.05710        1.89408       -0.25100
H          4.75502        3.04765       -2.29734
H          3.75544        1.99174       -3.29225
H          6.21533        1.18585       -1.66668
H          6.08799        1.25325       -3.42254
H          5.89754       -1.08039       -2.53899
H          4.46815       -0.58566       -3.44279
H          4.77159       -0.67194       -0.40196
H          3.78439       -1.74197       -1.38587
