30

C          2.54070       -0.00820       -0.10717
C          1.07504       -0.00425        0.32322
C          0.35608       -1.25250       -0.19231
C         -1.12342       -1.25436        0.18870
C         -1.86162        0.01369       -0.28687
C         -3.35432        0.01825        0.16404
C         -4.10333        1.26688       -0.32001
C         -4.11367       -1.22179       -0.32581
C         -1.11159        1.26826        0.20580
C          0.36794        1.25776       -0.17497
H          3.05408       -0.89819        0.27171
H          2.63623       -0.00116       -1.19832
H          3.06243        0.87162        0.28387
H          1.04472       -0.01170        1.42084
H          0.44603       -1.31330       -1.28456
H          0.83283       -2.15248        0.21453
H         -1.21637       -1.34897        1.27805
H         -1.57704       -2.14918       -0.25043
H         -1.83815        0.02087       -1.38582
H         -3.38935        0.01570        1.26150
H         -4.01713        1.38408       -1.40547
H         -5.16850        1.20559       -0.07074
H         -3.72201        2.17430        0.15720
H         -3.74058       -2.13430        0.14828
H         -5.17849       -1.15236       -0.07718
H         -4.02744       -1.33541       -1.41163
H         -1.20376        1.34889        1.29635
H         -1.55677        2.17323       -0.22093
H          0.85302        2.14744        0.24448
H          0.45876        1.33296       -1.26624
