21

C          1.75513       -2.32107       -0.00797
C          1.34249       -0.87230       -0.00854
C          2.34692        0.10931       -0.00883
C          2.01934        1.46108       -0.00798
C          0.68296        1.85126       -0.00657
C         -0.34495        0.89723       -0.00667
C         -1.68896        1.30660       -0.00557
C         -2.72387        0.37288       -0.00642
C         -2.42765       -0.98366       -0.00821
C         -1.09610       -1.40643       -0.00876
C         -0.02521       -0.48434       -0.00798
H          1.37795       -2.82353        0.88854
H          1.37472       -2.82559       -0.90193
H          2.84503       -2.43018       -0.00987
H          3.39649       -0.17690       -0.00962
H          2.80499        2.21181       -0.00825
H          0.44814        2.91337       -0.00559
H         -1.94059        2.36500       -0.00417
H         -3.75796        0.70640       -0.00580
H         -3.22963       -1.71702       -0.00920
H         -0.90423       -2.47652       -0.01010
