25

C          0.90328       -0.10885        0.21662
C          0.44666        1.30034       -0.03589
C         -0.79657        1.51706       -0.65005
C         -1.25627        2.81572       -0.89371
O         -2.46591        2.99034       -1.50366
C         -0.50082        3.93559       -0.53035
C         -0.92904        5.36928       -0.80353
C         -0.99911        5.66747       -2.30374
C         -2.23361        5.74737       -0.09771
C          0.73134        3.71204        0.10977
C          1.19572        2.41496        0.36050
Cl         2.71297        2.24727        1.17069
H          0.36738       -0.81738       -0.42459
H          0.71988       -0.38290        1.25998
H          1.96707       -0.22921       -0.01116
H         -1.40038        0.66221       -0.94264
H         -2.87481        2.12414       -1.65861
H         -0.15811        6.03625       -0.39353
H         -1.79526        5.10605       -2.80251
H         -1.19058        6.73239       -2.47468
H         -0.05375        5.41449       -2.79684
H         -2.17482        5.53376        0.97516
H         -2.43311        6.81843       -0.21488
H         -3.09806        5.21036       -0.49937
H          1.34186        4.55893        0.41634
