56

N          2.88545       -0.47611       -0.80890
C          1.78284       -1.13684       -0.12460
C          2.07138       -1.31248        1.35120
C          2.62713       -2.53513        1.77514
C          3.02942       -2.72095        3.09551
C          2.85473       -1.69591        4.01925
C          2.28092       -0.48421        3.62424
C          1.89349       -0.26536        2.28902
C          1.47641        1.12764        1.86437
C          0.28713        1.75300        2.55546
O          0.40008        2.47896        3.53978
N         -0.94054        1.61691        1.93508
C         -1.69344        0.31992        2.10532
C         -3.23519        0.53957        2.33840
O         -3.91785        1.31299        2.96894
N         -3.54023       -0.56758        1.56605
C         -3.90328       -1.70790        2.29402
C         -5.34873       -1.72428        2.71215
O         -6.13298       -0.79454        2.65783
O         -5.79992       -2.95487        3.02054
C         -3.00315       -2.64486        2.69340
C         -3.20333       -3.63241        3.82938
S         -3.55648       -2.87501        5.44858
C         -2.36133       -1.64172        5.60635
N         -2.47519       -0.40502        5.18423
N         -1.33650        0.24639        5.59346
N         -0.53314       -0.57474        6.25353
N         -1.17757       -1.75801        6.27382
C         -0.55504       -2.89576        6.89531
C          0.47188       -3.50679        5.99148
O          1.52096       -4.01905        6.34875
O          0.12251       -3.53343        4.68986
C         -1.63532       -2.79290        2.08410
S         -1.50353       -2.05248        0.46437
C         -2.22403       -0.45847        0.87970
H          2.50674        0.10908       -1.55197
H          3.35942        0.15599       -0.16550
H          0.86392       -0.55914       -0.25803
H          1.59645       -2.10806       -0.59695
H          2.79718       -3.33202        1.05216
H          3.50695       -3.65147        3.39495
H          3.19490       -1.82647        5.04506
H          2.19134        0.31477        4.36159
H          2.33370        1.79257        2.04076
H          1.29346        1.20353        0.79035
H         -1.51333        2.37389        2.32219
H         -1.23453       -0.27346        2.89954
H         -6.74965       -2.79076        3.20415
H         -3.97022       -4.37191        3.58321
H         -2.29280       -4.22155        3.98341
H         -0.06770       -2.54520        7.81101
H         -1.30927       -3.64049        7.15601
H          0.93481       -3.83652        4.22511
H         -1.41155       -3.85588        1.93705
H         -0.86284       -2.38706        2.73788
H         -2.32295        0.17247       -0.01534
