22

Br        -1.60549       -0.05452        0.01495
C          0.28431       -0.02595        0.01537
C          0.95794        1.19208        0.03810
C          2.35612        1.21057        0.03918
C          3.09705        0.01661        0.01549
C          4.56828        0.03895        0.01497
C          5.28186        0.70944        1.02227
C          6.67921        0.73058        1.02265
C          7.38656        0.08247        0.01330
C          6.69837       -0.58727       -0.99518
C          5.30105       -0.60929       -0.99310
C          2.39260       -1.19925       -0.00809
C          0.99449       -1.22303       -0.00716
H          0.41004        2.13033        0.05233
H          2.86951        2.17043        0.04604
H          4.74867        1.21310        1.82614
H          7.21322        1.25139        1.81315
H          8.47325        0.09934        0.01259
H          7.24725       -1.09129       -1.78637
H          4.78270       -1.12913       -1.79641
H          2.93479       -2.14312       -0.01501
H          0.47521       -2.17744       -0.02154
