25

C          0.78947        0.09060       -0.03457
C          0.64029       -0.54367        1.33995
O          1.13983        0.30078        2.38953
C          2.48316        0.45504        2.43327
O          3.30744       -0.01777        1.66385
C          2.86111        1.41593        3.48367
C          2.24064        1.39730        4.73819
C          2.63851        2.30581        5.72430
C          3.64461        3.24551        5.46040
C          4.08075        4.22949        6.50605
C          4.25256        3.26356        4.19773
C          3.87846        2.34034        3.22474
O          4.55247        2.39844        2.03371
H          0.38479        1.10729       -0.04262
H          0.27245       -0.50667       -0.79126
H          1.84018        0.16380       -0.33122
H         -0.42464       -0.69645        1.54543
H          1.12445       -1.52545        1.38652
H          1.46283        0.67108        4.96110
H          2.16116        2.27259        6.70179
H          5.15954        4.14582        6.67475
H          3.84491        5.24918        6.18563
H          3.57957        4.04874        7.46242
H          5.03202        3.98764        3.97166
H          4.38019        1.56944        1.53815
