17

C          1.04544        0.11560       -0.07553
C          0.57141       -1.24353       -0.56885
C          0.88752       -2.32174        0.43061
C          0.05307       -3.08955        1.15745
C          0.56911       -4.13286        2.10693
C         -1.43965       -2.99727        1.12157
O         -2.08316       -2.15901        0.50611
H          0.56707        0.38299        0.87270
H          0.80136        0.89060       -0.80918
H          2.13058        0.12550        0.07451
H         -0.48854       -1.18514       -0.81877
H          1.08773       -1.48369       -1.50604
H          1.95840       -2.48665        0.55382
H          0.22197       -3.92717        3.12510
H          0.21436       -5.12614        1.81228
H          1.66351       -4.16554        2.13146
H         -1.95596       -3.76480        1.72349
