25

N          1.00148       -0.10113       -0.19098
S          0.34671        1.43610       -0.36282
O          1.06291        2.03647       -1.47204
O         -1.08252        1.29574       -0.35058
C          0.75686        2.44564        1.03645
C          0.61549        3.80271        1.25351
C          1.14165        4.19411        2.51711
C          1.66825        3.14712        3.23110
S          1.47002        1.67012        2.38485
C          2.37292        3.20095        4.54146
O          3.77243        3.18050        4.28920
C          2.02794        4.42190        5.39429
C          1.81813        5.77807        4.72561
S          1.18797        5.82023        3.07229
O         -0.20344        6.21404        3.08232
O          2.17491        6.42774        2.20466
H          0.39510       -0.77351       -0.66364
H          1.95045       -0.11673       -0.56543
H          0.18358        4.47931        0.52319
H          2.13969        2.30644        5.13229
H          3.96569        3.62498        3.44694
H          2.82869        4.55968        6.13603
H          1.12534        4.19215        5.97259
H          1.10509        6.35164        5.33212
H          2.75215        6.34895        4.71955
