30

C          1.00622        0.28386        0.16097
C          0.74379        0.10280       -1.32632
C          1.19777       -1.25788       -1.86178
C          0.48622       -2.47630       -1.26425
C         -1.04828       -2.50963       -1.36914
C         -1.66192       -2.62491       -2.79212
C         -1.14416       -3.88676       -3.49763
C         -3.19094       -2.70524       -2.63557
O         -1.31046       -1.42690       -3.49689
C         -1.67450       -1.34350       -4.86572
H          0.42482       -0.42177        0.76147
H          0.72426        1.29507        0.47180
H          2.06698        0.14346        0.39131
H         -0.31895        0.26574       -1.53218
H          1.28564        0.88575       -1.87081
H          1.09132       -1.26619       -2.95187
H          2.27365       -1.36596       -1.67323
H          0.90460       -3.38123       -1.72024
H          0.74961       -2.54461       -0.20124
H         -1.39143       -3.36511       -0.77122
H         -1.44972       -1.61636       -0.87458
H         -1.25017       -4.77196       -2.86137
H         -1.69925       -4.08283       -4.42197
H         -0.09270       -3.78111       -3.78425
H         -3.58832       -1.77112       -2.22234
H         -3.68949       -2.86031       -3.59798
H         -3.48470       -3.53049       -1.97804
H         -1.15527       -2.09968       -5.46011
H         -2.75532       -1.42459       -5.00071
H         -1.36302       -0.36199       -5.23481
