17

C          1.43109       -0.22163        0.07839
C          0.90900        1.06469       -0.00068
C         -0.47345        1.25237       -0.09794
C         -1.37305        0.16958       -0.11747
C         -2.86162        0.42689       -0.21862
C         -3.85560       -0.62547       -0.64790
O         -3.71074       -0.25097        0.72595
C         -0.81153       -1.11720       -0.02440
C          0.57073       -1.31358        0.06718
H          2.50434       -0.37209        0.15639
H          1.57346        1.92428        0.01800
H         -0.85666        2.27000       -0.15101
H         -3.14691        1.44808       -0.46247
H         -4.75358       -0.30097       -1.15952
H         -3.51742       -1.61046       -0.93875
H         -1.45679       -1.99188       -0.00852
H          0.97014       -2.32217        0.13768
