49

C         -0.35613        0.45354        0.08680
O          0.76752        1.17728       -0.41982
C          1.23415        2.09478        0.48291
C          0.40009        3.14250        0.88425
C          0.83807        4.10050        1.80983
C          2.13098        4.05539        2.35183
C          2.61569        4.96491        3.46371
C          1.82208        5.96498        3.91649
C          1.92261        6.67649        5.22108
O          0.96813        6.54214        5.98694
N          3.02712        7.43235        5.53879
C          3.88609        8.11376        4.56772
C          5.29814        8.32152        5.13233
O          5.25993        8.99149        6.40266
C          4.51409        8.21342        7.35126
C          3.07257        8.01860        6.88073
C          3.91653        4.72474        4.14909
C          3.97392        4.16234        5.43011
C          5.21003        3.90652        6.02987
C          6.38972        4.19678        5.34534
Cl         7.90917        3.87367        6.08331
C          6.34837        4.74645        4.06642
C          5.11432        5.01504        3.47226
C          2.96370        3.01714        1.88624
C          2.54297        2.04458        0.96040
O          3.52935        1.14054        0.67054
C          3.19950       -0.00601       -0.09667
H         -1.27572        1.03598       -0.02540
H         -0.21309        0.15629        1.13247
H         -0.46095       -0.45822       -0.50918
H         -0.60738        3.22404        0.48439
H          0.11462        4.85498        2.10170
H          0.85395        6.17083        3.47650
H          3.42136        9.09080        4.38607
H          3.91415        7.59096        3.61073
H          5.82191        7.36956        5.26129
H          5.88975        8.93814        4.44922
H          4.52764        8.74369        8.30857
H          5.01444        7.24795        7.49628
H          2.55899        8.98567        6.82137
H          2.53287        7.38917        7.59635
H          3.05843        3.91777        5.96529
H          5.24412        3.47302        7.02562
H          7.26658        4.96506        3.52774
H          5.08840        5.43550        2.46825
H          3.97793        2.90798        2.26388
H          2.41461       -0.59611        0.38638
H          2.93919        0.26424       -1.12412
H          4.09281       -0.63707       -0.14450
