34

C          1.01324       -0.14216       -0.24641
O          0.37722       -1.40516       -0.03556
C          0.95497       -2.46142       -0.65850
O          1.88120       -2.33567       -1.45581
C          0.27177       -3.79521       -0.37422
S         -0.35842       -3.75537        1.30609
O          0.76149       -3.57025        2.21230
O         -1.50202       -2.86073        1.37221
C         -1.02165       -5.37194        1.69219
C         -0.17670       -6.37430        2.17973
C         -0.70979       -7.61437        2.53862
C         -2.08476       -7.83173        2.44689
Br        -2.80382       -9.50526        2.95161
C         -2.93554       -6.81908        2.00459
C         -2.40536       -5.58176        1.63247
C         -0.80824       -4.02962       -1.43683
C         -0.85684       -5.53270       -1.66776
C          0.53038       -6.05884       -1.33978
C          1.27231       -4.94846       -0.59938
H          0.61698        0.56207        0.49045
H          0.77887        0.22815       -1.24827
H          2.09618       -0.21362       -0.10160
H          0.89029       -6.20082        2.29949
H         -0.04929       -8.39637        2.90572
H         -4.01055       -6.97769        1.96095
H         -3.08038       -4.78919        1.31452
H         -1.79190       -3.64069       -1.15578
H         -0.53450       -3.54194       -2.38185
H         -1.14328       -5.77147       -2.69743
H         -1.60261       -6.00305       -1.02170
H          1.06875       -6.32115       -2.25785
H          0.47095       -6.97136       -0.73755
H          2.12181       -4.64937       -1.22467
H          1.72185       -5.31803        0.32615
