25

C          0.52700       -0.24592        0.03224
C          0.18281        0.66014       -0.89957
C         -1.27320        0.97699       -1.12950
C          1.16576        1.42737       -1.79130
C          1.77305        2.64583       -1.07581
C          2.95283        2.29779       -0.21701
C          3.71552        1.20375       -0.37707
C          4.83062        0.84879        0.55567
C          3.42824        0.27032       -1.51097
O          4.16084       -0.69296       -1.72169
C          2.26464        0.57344       -2.43203
H         -0.22419       -0.75225        0.63276
H          1.55317       -0.51684        0.24984
H         -1.45849        2.04653       -0.99013
H         -1.56154        0.69959       -2.14878
H         -1.92902        0.43332       -0.44088
H          0.56923        1.81674       -2.62958
H          2.10149        3.38477       -1.81804
H          1.01237        3.14021       -0.45951
H          3.17337        2.98732        0.59527
H          5.74028        1.39565        0.29072
H          4.56327        1.09479        1.58952
H          5.05638       -0.22215        0.53926
H          2.67984        1.10127       -3.29996
H          1.84574       -0.37472       -2.78911
