37

C          1.24583        0.28700        0.05979
C          0.89541       -1.08128       -0.50064
N          1.06296       -2.14855        0.48856
C         -0.15009       -2.62409        1.15280
C         -0.98052       -3.50513        0.23384
C          2.33548       -2.69458        0.64453
O          3.30172       -2.23953        0.01925
C          2.57757       -3.84499        1.64724
C          2.63072       -3.30217        3.07558
O          1.74565       -4.98721        1.34198
C          1.23488       -5.77467        2.31048
O          1.16565       -5.55014        3.50481
C          0.86100       -7.08141        1.73259
C         -0.03415       -7.19478        0.66555
C         -0.38697       -8.45858        0.18715
C          0.16122       -9.60331        0.76679
C          1.05869       -9.49009        1.82876
C          1.40292       -8.23034        2.31872
H          0.63587        0.52113        0.93788
H          1.06953        1.05861       -0.69647
H          2.29772        0.33752        0.35750
H         -0.13964       -1.07673       -0.85793
H          1.52900       -1.29403       -1.36935
H          0.09609       -3.18551        2.05153
H         -0.73224       -1.75429        1.47704
H         -0.34826       -4.21816       -0.30143
H         -1.73276       -4.05512        0.80721
H         -1.50291       -2.90993       -0.52075
H          3.59406       -4.19609        1.42008
H          1.64721       -3.03624        3.46994
H          3.06748       -4.04303        3.75433
H          3.25869       -2.40603        3.12941
H         -0.47799       -6.31730        0.21287
H         -1.09434       -8.55244       -0.63368
H         -0.11558      -10.58657        0.39358
H          1.48490      -10.38268        2.27959
H          2.09355       -8.14336        3.15457
