48

C          1.25086       -0.22604        0.33844
C          0.90826        1.15246        0.88096
C          1.30235        2.29453       -0.06305
C          0.69628        2.22562       -1.47065
C         -0.80219        2.30320       -1.44100
C         -1.50227        3.27634       -2.03928
C         -2.98446        3.44687       -1.88229
C         -3.31563        4.71442       -1.08417
C         -2.82492        6.02841       -1.71110
C         -3.28529        6.27087       -3.15312
C         -4.80588        6.28996       -3.33240
C         -5.47303        7.54318       -2.75360
C         -5.41725        8.74926       -3.69450
C         -6.30016        8.61406       -4.93473
O         -7.69299        8.70854       -4.57573
C         -8.60501        7.71626       -4.69543
C         -8.11590        6.29790       -4.73808
O         -9.80274        7.96817       -4.68026
H          0.66256       -0.46459       -0.55275
H          1.03266       -0.99133        1.08960
H          2.31241       -0.29244        0.08111
H         -0.16235        1.19732        1.11057
H          1.43054        1.29600        1.83431
H          1.01624        3.24482        0.40742
H          2.39503        2.31479       -0.15630
H          1.10729        3.05648       -2.05854
H          1.00361        1.30804       -1.98226
H         -1.32830        1.54783       -0.86206
H         -0.98009        4.02265       -2.63392
H         -3.45601        3.46890       -2.87049
H         -3.41717        2.58494       -1.35903
H         -4.39961        4.76217       -0.92897
H         -2.87742        4.63087       -0.08077
H         -3.14622        6.85844       -1.07221
H         -1.72864        6.05552       -1.68955
H         -2.85511        7.21466       -3.50762
H         -2.86576        5.49390       -3.80291
H         -5.02471        6.19600       -4.40049
H         -5.24979        5.40346       -2.86807
H         -6.51676        7.32321       -2.50954
H         -5.00420        7.81603       -1.80237
H         -5.74406        9.63004       -3.12820
H         -4.38215        8.93089       -4.00412
H         -6.10365        9.47137       -5.58866
H         -6.07281        7.72791       -5.52809
H         -7.78590        5.98596       -3.74606
H         -8.95325        5.65241       -5.02441
H         -7.33935        6.14004       -5.48442
