21

C          1.28243        0.29811       -0.14018
C          0.57748        0.14663       -1.48171
C          1.28243       -0.85032       -2.39207
O         -0.83413       -0.02177       -1.39583
C         -1.48287       -1.15123       -0.81983
C         -1.27047       -2.45844       -1.57195
C         -1.27046       -1.31003        0.67994
H          1.43432       -0.66646        0.35029
H          0.70800        0.93812        0.53648
H          2.27417        0.74284       -0.27712
H          0.68063        1.12018       -1.97821
H          1.43431       -1.81372       -1.89931
H          0.70799       -1.02222       -3.30746
H          2.27416       -0.47833       -2.67165
H         -2.54761       -0.91336       -0.94113
H         -0.30087       -2.90675       -1.34189
H         -2.03322       -3.19165       -1.28791
H         -1.32670       -2.30391       -2.65382
H         -1.32669       -0.34358        1.19013
H         -2.03321       -1.97048        1.10663
H         -0.30086       -1.75950        0.90771
