22

C          0.98489        0.41389       -0.23053
C          0.28500       -0.19797       -1.20678
C         -1.20913       -0.44720       -1.10323
C         -2.18094        0.44995       -1.90709
Cl        -2.30939       -0.05792       -3.62078
Cl        -3.83768        0.29264       -1.19944
Cl        -1.73619        2.18488       -1.83466
C          1.03085       -0.73869       -2.35199
C          1.05772       -0.06709       -3.57915
C          1.78535       -0.58348       -4.65368
C          2.52206       -1.75608       -4.50007
C          2.53030       -2.41502       -3.27237
C          1.78516       -1.91115       -2.20407
H          0.50212        0.79516        0.66290
H          2.06064        0.54828       -0.29742
H         -1.40818       -1.50342       -1.33561
H         -1.47036       -0.35203       -0.03822
H          0.52082        0.86816       -3.71389
H          1.78306       -0.06350       -5.60842
H          3.09722       -2.14990       -5.33396
H          3.12097       -3.31848       -3.14476
H          1.80885       -2.43218       -1.24950
