36

C          1.03449       -0.30261       -0.18692
C          0.76752       -0.12534        1.29989
C          1.23813        1.22756        1.84268
C          0.57507        2.45478        1.20514
C         -0.95396        2.46673        1.27605
C         -1.52172        2.51439        2.69746
C         -1.26288        3.82158        3.46379
C         -1.78208        5.10343        2.79588
C         -3.30859        5.29843        2.78755
C         -3.77721        6.30045        3.82597
C         -5.14769        5.80159        4.20889
C         -5.03000        4.33359        3.95790
O         -5.76136        3.47331        4.41441
O         -4.01163        4.09256        3.08774
H          0.47885        0.42395       -0.78706
H          0.72474       -1.30187       -0.50862
H          2.10058       -0.18994       -0.40737
H         -0.29985       -0.26957        1.50019
H          1.28944       -0.91984        1.84623
H          1.07499        1.24560        2.92665
H          2.32301        1.30887        1.70186
H          0.97478        3.35761        1.68150
H          0.87486        2.52043        0.15264
H         -1.33056        3.31235        0.69101
H         -1.35179        1.57903        0.77141
H         -2.59496        2.31564        2.63456
H         -1.11915        1.68309        3.28752
H         -1.69803        3.73678        4.46749
H         -0.18221        3.92773        3.61752
H         -1.31056        5.96666        3.28452
H         -1.41545        5.15626        1.76503
H         -3.62307        5.62357        1.78786
H         -3.79304        7.32432        3.43933
H         -3.12613        6.28977        4.70817
H         -5.93011        6.20935        3.56350
H         -5.36647        6.00334        5.25975
