25

C          1.69365       -0.80273       -0.74363
C          0.62522       -1.48510        0.10427
C          1.08209       -1.67213        1.54551
C          0.29563       -0.93456        2.60951
O         -0.43799       -1.48048        3.42842
N          0.66479        0.40690        2.78372
N          1.20574        0.79899        3.98477
C          1.60096        2.05984        3.78077
C          1.27158        2.51136        2.50366
C          1.42377        3.75053        1.79763
O          2.00445        4.73259        2.23748
N          0.83934        3.71989        0.54539
C          0.17977        2.61658        0.04380
N          0.05132        1.48086        0.65884
C          0.63588        1.46073        1.88596
H          2.09029        0.09667       -0.26454
H          1.28327       -0.51801       -1.71712
H          2.53746       -1.47870       -0.91599
H         -0.32144       -0.93979        0.05044
H          0.43191       -2.46841       -0.34235
H          0.97269       -2.73796        1.79082
H          2.14904       -1.45483        1.67723
H          2.09601        2.59484        4.58202
H          0.90750        4.56921        0.00457
H         -0.24477        2.77415       -0.96081
