31

C          1.71915        0.14541        0.09620
C          1.32725        0.53130        1.51267
C          1.19548        2.04048        1.78279
C          0.44424        2.91245        0.76548
O         -0.98106        2.82406        0.81661
P         -1.55772        1.26363        0.34181
O         -1.79871        0.81948        1.78640
O         -2.99175        1.89841       -0.18004
C         -3.10482        3.23382       -0.66324
C         -3.88606        4.13659        0.30735
C         -3.23839        4.42143        1.66919
C         -2.09953        5.43471        1.61287
H          0.97611        0.46516       -0.63841
H          1.80024       -0.94433        0.01798
H          2.68740        0.57683       -0.17481
H          0.40812        0.00392        1.77939
H          2.08212        0.12946        2.19991
H          0.73666        2.16628        2.77040
H          2.21768        2.43533        1.85503
H          0.68743        3.95885        0.97766
H          0.77572        2.71981       -0.25915
H         -2.01771        0.01890       -0.03692
H         -2.13710        3.66053       -0.94399
H         -3.67774        3.17319       -1.59530
H         -4.09829        5.09130       -0.18859
H         -4.85074        3.65450        0.50653
H         -4.00213        4.82535        2.34531
H         -2.90161        3.48975        2.13393
H         -2.49181        6.45554        1.57139
H         -1.47974        5.35536        2.51340
H         -1.45309        5.29612        0.74270
