20

Cl         2.69283        0.70244        0.23322
C          1.14664       -0.02935        0.09784
C          0.02551        0.73847       -0.04632
C         -1.12445        0.01012       -0.16442
Cl        -2.64207        0.79501       -0.32272
N         -1.19260       -1.32842       -0.16187
C         -0.02731       -1.97182        0.00575
C         -0.06202       -3.43640        0.05709
C         -0.82671       -4.17787       -0.86118
C         -0.86574       -5.57389       -0.80720
C         -0.15324       -6.25305        0.17804
C          0.60756       -5.53967        1.10097
C          0.65996       -4.14474        1.03420
N          1.16284       -1.36894        0.14677
H          0.04606        1.81661       -0.06401
H         -1.39422       -3.66303       -1.63484
H         -1.45532       -6.12842       -1.53279
H         -0.19153       -7.33818        0.22715
H          1.15976       -6.06655        1.87493
H          1.25981       -3.60311        1.76393
