26

C         -0.35575       -0.13059        0.05183
O          0.48504       -1.08457        0.69172
P          1.06171       -2.48682       -0.14139
S         -0.72024       -3.37234        0.16112
O          1.22509       -1.56279       -1.49989
C          2.47012       -0.89249       -1.64005
S          1.76838       -4.20517       -1.16231
C          1.01019       -4.37243       -2.79042
C         -0.38473       -4.98887       -2.82579
O         -1.22276       -4.43413       -3.54561
N         -0.60783       -6.22061       -2.21958
C          0.44906       -7.08012       -1.71518
C         -1.90115       -6.58087       -1.85809
O         -2.96856       -6.15248       -2.27297
H         -1.05363        0.26663        0.79335
H         -0.92652       -0.55476       -0.77788
H          0.26233        0.69379       -0.31504
H          2.32969       -0.01581       -2.27631
H          2.84965       -0.56710       -0.66656
H          3.19768       -1.56032       -2.10855
H          0.96084       -3.38348       -3.25628
H          1.66294       -4.98267       -3.42333
H          0.60873       -6.86911       -0.65316
H          0.14191       -8.12833       -1.80078
H          1.37703       -6.95103       -2.27563
H         -1.90124       -7.41378       -1.13283
