13

O         -1.76476       -2.79461       -0.02847
C         -0.93025       -1.71009       -0.01313
C          0.43379       -1.97096        0.00070
C          1.33966       -0.90955        0.01584
Cl         3.02231       -1.31305        0.03218
C          0.87926        0.41877        0.01728
Cl         2.02105        1.73050        0.03537
C         -0.50653        0.67583        0.00378
Cl        -1.10211        2.31034        0.00583
C         -1.41235       -0.39730       -0.01150
Cl        -3.13061       -0.16432       -0.02879
H         -2.68592       -2.46960       -0.03861
H          0.78372       -3.00094       -0.00060
