30

C          4.76661       -0.00176       -0.01397
C          4.40219       -1.34357        0.02739
C          3.05226       -1.69758        0.04187
C          2.04882       -0.71370        0.01798
C          0.68243       -1.05177        0.02414
C         -0.35338       -0.08239        0.00833
C          0.04937        1.27553       -0.00178
C         -0.91342        2.28839        0.00684
C         -2.27149        1.98397        0.02156
C         -2.70733        0.65696        0.01530
C         -4.08586        0.38268        0.01681
C         -4.55843       -0.92661       -0.00264
C         -3.65570       -1.97818       -0.02216
C         -2.28188       -1.71787       -0.01663
C         -1.76004       -0.39897        0.00395
C          1.41283        1.61842       -0.01974
C          2.41849        0.64240       -0.01323
C          3.78110        0.98603       -0.03336
H          5.81673        0.27756       -0.02935
H          5.16660       -2.11580        0.04737
H          2.78694       -2.75203        0.07325
H          0.43062       -2.10857        0.04598
H         -0.61572        3.33504        0.00520
H         -2.98875        2.80196        0.03222
H         -4.80876        1.19594        0.02973
H         -5.62721       -1.12163       -0.00540
H         -4.01312       -3.00437       -0.04297
H         -1.61980       -2.57853       -0.03604
H          1.69887        2.66903       -0.03701
H          4.08429        2.03018       -0.06395
