33

C          1.44687       -0.27237        0.05788
C          1.20777        0.30664        1.44420
C          1.36717        1.82718        1.49614
C          0.25249        2.63172        0.81328
N         -1.07063        2.51597        1.43255
C         -1.22487        3.08783        2.76748
C         -2.00321        1.68569        0.84292
O         -1.70971        0.84744       -0.00989
N         -3.30167        1.74065        1.25793
C         -4.13164        2.87240        1.40647
C         -3.73422        4.16879        1.07029
C         -4.61898        5.24139        1.22120
C         -5.91306        5.02512        1.69949
Cl        -6.95058        6.39544        1.86541
C         -6.32381        3.72735        2.01731
Cl        -7.91009        3.37653        2.60701
C         -5.43671        2.65563        1.86205
H          0.73260        0.11121       -0.67472
H          1.34770       -1.36227        0.08414
H          2.45603       -0.03520       -0.29415
H          0.22092        0.00724        1.81194
H          1.94059       -0.13970        2.12764
H          1.44931        2.12942        2.54601
H          2.32332        2.09949        1.03156
H          0.51774        3.69582        0.84152
H          0.18925        2.36206       -0.24672
H         -1.08151        4.17021        2.70660
H         -2.19537        2.86733        3.21390
H         -0.46981        2.66243        3.43320
H         -3.79127        0.87905        1.04496
H         -2.74751        4.36773        0.66033
H         -4.29248        6.24365        0.95274
H         -5.76622        1.65054        2.11549
