31

C          0.79743       -0.03904       -0.13969
O          0.25617       -0.02774        1.18312
C          1.01221       -0.68286        2.11406
O          2.02430       -1.31257        1.83256
C          0.39703       -0.53192        3.52503
C          0.37709        0.95350        3.90582
C         -0.76074        1.79029        3.38196
C          1.29062        1.48622        4.73981
C          2.38541        0.70814        5.40802
C          2.48626       -0.75187        4.95934
C          1.11330       -1.38847        4.63372
C          0.23147       -1.42827        5.91111
C          1.31433       -2.86257        4.22006
H          0.33769        0.77922       -0.70116
H          0.54702       -0.98493       -0.62719
H          1.88101        0.12141       -0.14085
H         -0.63501       -0.90298        3.45023
H         -0.69231        1.93245        2.30105
H         -1.71919        1.31466        3.61436
H         -0.77599        2.78715        3.83659
H          1.23100        2.53923        5.00899
H          3.34542        1.20780        5.23574
H          2.20693        0.73918        6.48998
H          3.13300       -0.79434        4.07375
H          3.00711       -1.32985        5.73314
H         -0.71231       -1.95018        5.71494
H          0.74246       -1.96153        6.72157
H         -0.02244       -0.43456        6.29080
H          1.60066       -3.47495        5.08406
H          0.39285       -3.28575        3.80602
H          2.11212       -2.99161        3.48420
