26

C          0.90511       -0.15363        0.07789
C          0.68065        1.05194        0.97323
O          1.15385        2.24827        0.33824
C          2.49708        2.44796        0.35640
O          3.30759        1.72951        0.92623
C          2.87027        3.71769       -0.37084
C          2.33578        3.81139       -1.80173
C          0.83822        4.11467       -1.97001
C          0.28971        5.28857       -1.16356
C          0.72740        6.62066       -1.70158
O          0.02643        7.42060       -2.29886
O          2.02069        6.89387       -1.45371
H          0.49709        0.02593       -0.92219
H          0.43249       -1.04418        0.50116
H          1.97304       -0.35812       -0.04726
H         -0.39384        1.18715        1.13596
H          1.14481        0.92250        1.95722
H          2.59113        4.57617        0.24545
H          3.96670        3.72584       -0.42888
H          2.90506        4.58781       -2.32696
H          2.55222        2.87303       -2.32862
H          0.64893        4.29151       -3.03685
H          0.25984        3.21961       -1.71577
H         -0.80608        5.27083       -1.22109
H          0.52888        5.22740       -0.09805
H          2.15717        7.77570       -1.86061
