38

C          0.72295        0.16892        1.20351
C         -0.24558        1.33799        1.33787
C         -0.07482        2.45579        0.31477
C         -0.63035        2.35944       -1.11056
O         -1.75555        1.53455       -1.33875
C         -1.54500        0.12694       -1.41331
C         -0.47269       -0.38775       -2.38994
O          0.87751        0.00610       -2.04498
C          1.66463        0.37924       -3.09710
O          1.30018        0.39150       -4.26374
C          3.09992        0.74926       -2.70030
O          3.42580        1.03916       -1.35562
C          3.47972        2.34102       -0.93301
C          2.79714        3.39830       -1.54305
C          2.72502        4.64758       -0.90975
C          3.36185        4.85252        0.31348
Cl         3.18249        6.35559        1.13069
C          4.11422        3.83745        0.89199
C          4.17171        2.58810        0.26878
Cl         5.11136        1.35145        1.03099
H          0.42880       -0.54413        0.43410
H          0.75629       -0.38966        2.14508
H          1.73830        0.50423        0.97859
H         -1.28354        0.99631        1.38130
H         -0.04121        1.78742        2.31872
H         -0.52260        3.35495        0.75799
H          0.98695        2.69313        0.25293
H         -0.95616        3.37323       -1.38191
H          0.15094        2.16164       -1.84167
H         -1.40763       -0.27105       -0.41126
H         -2.50565       -0.28577       -1.74593
H         -0.48910       -1.48348       -2.35860
H         -0.74752       -0.06897       -3.39942
H          3.69623       -0.13300       -2.96163
H          3.43995        1.54987       -3.36862
H          2.24305        3.26797       -2.46713
H          2.12949        5.44300       -1.35323
H          4.62822        4.00533        1.83481
