19

C          0.91978        0.01278        0.07369
C          0.40863        0.24948        1.47590
O         -0.29918        1.23264        1.70766
C          0.79360       -0.75653        2.57936
C          0.26414       -2.15105        2.22250
C          2.31818       -0.79483        2.74234
C          0.16631       -0.31837        3.91484
H          0.55824        0.81147       -0.58145
H          0.54576       -0.93715       -0.31269
H          2.01112        0.03038        0.05816
H          0.74953       -2.55258        1.32654
H          0.44327       -2.86322        3.03597
H         -0.81400       -2.12530        2.02713
H          2.72081        0.20862        2.92172
H          2.61093       -1.43197        3.58456
H          2.81220       -1.19066        1.84856
H          0.51596        0.67778        4.21019
H         -0.92686       -0.27487        3.84504
H          0.42119       -1.01392        4.72239
