44

C          1.41227       -0.46583        0.22573
C          0.86384       -1.17461       -1.01791
C          1.83012       -2.35008       -1.34158
C         -0.46342       -1.85630       -0.62730
C          0.81984       -0.27794       -2.32418
C          0.36931        1.24164       -2.46878
C          1.08708        2.13563       -1.43633
C          0.96480        1.70100       -3.84639
C         -1.20273        1.53498       -2.58684
C         -2.07523        0.35519       -2.16776
C         -3.58027        0.59672       -2.18587
C         -3.96898        1.82022       -1.36069
N         -3.87404        1.50918        0.11656
O         -2.75267        1.68160        0.60367
C         -3.18446        3.04060       -1.85668
N         -3.64155        4.29861       -1.16464
O         -2.83639        4.73067       -0.33101
C         -1.65757        2.85182       -1.89682
H          1.58077       -1.17983        1.04143
H          0.70371        0.27093        0.61321
H          2.36941        0.02335        0.02327
H          1.91086       -3.04780       -0.49925
H          1.47374       -2.91931       -2.20815
H          2.84068       -1.98998       -1.56103
H         -1.08556       -1.22173        0.00895
H         -1.03168       -2.17683       -1.50521
H         -0.28878       -2.75574       -0.02347
H          1.86900       -0.26829       -2.66142
H          0.30479       -0.85434       -3.10543
H          2.15332        1.89114       -1.37296
H          1.03510        3.19557       -1.71403
H          0.65635        2.04657       -0.43870
H          0.58822        1.07907       -4.66669
H          0.70623        2.74330       -4.06743
H          2.05957        1.63067       -3.85521
H         -1.43306        1.67839       -3.65389
H         -1.87068       -0.50655       -2.81060
H         -1.80899        0.11481       -1.14791
H         -4.08942       -0.30160       -1.81389
H         -3.90805        0.73774       -3.22329
H         -5.04269        2.00262       -1.49721
H         -3.49736        3.21749       -2.89609
H         -1.26827        2.89281       -0.87671
H         -1.21015        3.70292       -2.42847
