24

C          2.15789        1.85228        0.01111
C          1.03955        0.85343       -0.01135
C         -0.28483        1.28730       -0.02325
C         -1.36250        0.37810       -0.02246
C         -2.73553        1.00153       -0.04279
C         -1.10018       -1.01564        0.03129
C         -2.25012       -1.97238        0.15494
O         -3.34996       -1.73392        0.62275
O         -1.99726       -3.20407       -0.31945
C          0.24942       -1.46226        0.02914
C          0.65717       -2.91324        0.06379
C          1.29477       -0.51632        0.00379
H          2.05589        2.55455       -0.82238
H          2.14487        2.40821        0.95421
H          3.13408        1.36517       -0.08143
H         -0.48910        2.35801       -0.03013
H         -2.98256        1.39107        0.95020
H         -2.75125        1.83533       -0.75557
H         -3.52505        0.32677       -0.37409
H         -2.82520       -3.69521       -0.13575
H          0.22810       -3.41732        0.93483
H          0.36209       -3.41799       -0.86139
H          1.74514       -3.02320        0.14139
H          2.32887       -0.85895        0.01157
