30

O          1.16082       -0.02030        0.07634
C          2.38717       -0.02030        0.07634
O          3.11759       -1.23002        0.07793
C          4.49552       -1.54681        0.20896
C          5.17782       -1.19882        1.37050
C          6.56239       -1.43979        1.43930
N          7.27196       -0.89557        2.59539
O          6.64203       -0.83699        3.65970
O          8.40217       -0.42912        2.42134
C          7.22703       -2.09602        0.39196
Cl         8.90504       -2.49869        0.39519
C          6.49916       -2.49251       -0.74093
C          5.13469       -2.21982       -0.83525
Cl         4.28751       -2.66691       -2.26461
O          3.11759        1.18942        0.07475
C          4.49552        1.50621       -0.05628
C          5.17782        1.15822       -1.21781
C          6.56239        1.39918       -1.28661
N          7.27196        0.85497       -2.44270
O          6.64203        0.79638       -3.50702
O          8.40217        0.38851       -2.26866
C          7.22703        2.05542       -0.23927
Cl         8.90504        2.45809       -0.24250
C          6.49916        2.45191        0.89362
C          5.13469        2.17921        0.98793
Cl         4.28751        2.62630        2.41730
H          4.64789       -0.70720        2.18439
H          7.00424       -3.00159       -1.56181
H          4.64789        0.66659       -2.03171
H          7.00424        2.96098        1.71449
