68

C          0.56657       -0.38295        2.78562
C          0.14301        0.85480        1.98611
C          0.59089        0.85883        0.43560
C         -0.48165        0.89818       -1.35787
C         -1.71313        1.64669       -2.13197
O         -1.71765        2.75004       -2.66733
O         -2.71992        0.81668       -2.46725
C         -1.27047        1.29122        1.99366
C         -1.38498        2.81581        2.20736
C         -0.46351        3.51820        1.18493
C         -0.52488        2.65055       -0.09854
C          1.16383        2.39013       -1.09347
C          1.35094        3.36609       -2.27023
O          1.91335        4.58424       -1.73905
C          2.20351        2.93817       -3.47639
C          2.88650        1.55449       -3.57738
C          3.28964        1.31710       -5.06052
C          3.80143       -0.08354       -5.44694
O          3.10970       -0.51430       -6.63340
C          3.76153       -1.19476       -4.39028
C          3.23206       -0.81268       -3.00869
C          2.15924        0.31754       -3.00830
C          0.98697       -0.16337       -3.91869
C          1.74283        0.56382       -1.49009
C          0.71369       -0.95076       -0.84956
C         -0.94814       -0.68192        0.08620
C         -1.55196        1.09487        0.51501
C         -3.08942        1.14379        0.36307
H          0.60212       -1.30685        2.20737
H         -0.06322       -0.53294        3.66587
H          1.59495       -0.23415        3.14281
H          0.72102        1.63175        2.51420
H          1.23540        1.70663        0.65096
H          1.43738        0.16732        0.53740
H          0.11673        1.21476       -2.20143
H         -0.74696       -0.07731       -1.79611
H         -3.28023        1.39599       -3.03006
H         -1.90412        0.71575        2.67454
H         -2.42316        3.13854        2.05505
H         -1.11444        3.09683        3.23003
H          0.55613        3.61952        1.56437
H         -0.83273        4.53301        0.99454
H         -1.16489        3.27627       -0.72050
H          1.96067        2.75565       -0.41449
H          0.38095        3.68197       -2.64839
H          2.82304        4.39389       -1.44920
H          1.56551        3.07552       -4.35874
H          3.00720        3.67901       -3.61385
H          3.82529        1.65806       -3.01205
H          4.07349        2.04309       -5.31542
H          2.44560        1.58140       -5.71350
H          4.83737        0.02426       -5.78406
H          2.41709       -1.15429       -6.39434
H          4.78408       -1.57376       -4.26022
H          3.19278       -2.06115       -4.75181
H          4.09034       -0.50098       -2.39660
H          2.84516       -1.71644       -2.52192
H          0.14085        0.52186       -3.96464
H          1.26582       -0.28344       -4.96195
H          0.62282       -1.15051       -3.62143
H          2.68686        0.51401       -0.91661
H          1.36838       -1.54627       -0.19081
H          0.49484       -1.62725       -1.68210
H         -0.95528       -1.30352        0.98459
H         -1.72932       -1.13929       -0.54410
H         -3.45052        2.14962        0.13753
H         -3.44454        0.45735       -0.40672
H         -3.59798        0.78920        1.26751
