29

N          2.44137       -0.63462        0.60963
C          1.06576       -0.43948        0.44650
C          0.30557       -1.36075       -0.27881
C         -1.07687       -1.20354       -0.39991
C         -1.71482       -0.15357        0.26572
S         -3.44018        0.11046       -0.07111
O         -3.61798        0.04166       -1.50524
O         -4.17417       -0.75991        0.82341
N         -3.78151        1.66636        0.43031
C         -3.25291        2.86700       -0.11791
C         -3.68704        4.06510        0.46208
C         -3.11799        5.28623        0.08887
C         -2.10554        5.31200       -0.86530
Cl        -1.36211        6.80412       -1.28525
C         -1.68371        4.13134       -1.47004
C         -2.26587        2.91186       -1.10550
C         -0.98331        0.70041        1.09218
C          0.40353        0.54810        1.18225
H          2.87528       -1.14237       -0.15573
H          2.94993        0.21493        0.83613
H          0.78822       -2.19637       -0.77940
H         -1.64722       -1.89649       -1.01523
H         -4.49129        1.70954        1.15896
H         -4.46103        4.06265        1.22561
H         -3.45745        6.20591        0.55802
H         -0.89358        4.14613       -2.21663
H         -1.90631        2.01447       -1.60009
H         -1.46171        1.49781        1.65217
H          0.96879        1.22305        1.82041
