28

C          1.01852       -0.19635        0.09686
C          0.63050        0.36357       -1.23926
C          0.05981       -0.45244       -2.22176
C         -0.30796        0.08602       -3.45516
C         -0.11345        1.44095       -3.71403
C          0.50181        2.26091       -2.76694
C          0.86515        1.71452       -1.52733
C          0.75891        3.71150       -3.04377
C          0.38664        4.10130       -4.46911
C         -0.80766        3.30822       -4.98968
C         -2.15292        3.59897       -4.37307
C         -2.46685        4.70101       -3.38483
O         -2.70978        4.86414       -4.78331
O         -0.54616        1.89239       -4.93089
H          0.59291       -1.19332        0.25104
H          0.64408        0.44705        0.90025
H          2.10759       -0.26967        0.17272
H         -0.11214       -1.50890       -2.03186
H         -0.76436       -0.54898       -4.21002
H          1.33098        2.35038       -0.77606
H          1.81916        3.93880       -2.87783
H          0.18765        4.30904       -2.32606
H          1.24758        3.87113       -5.11209
H          0.22191        5.18209       -4.53900
H         -0.90187        3.53061       -6.06019
H         -2.82178        2.74792       -4.42863
H         -3.32412        4.56173       -2.73604
H         -1.68542        5.30632       -2.95028
