30

C          1.04434        0.06558       -0.11072
C          0.49127       -1.28959       -0.56515
C          1.02655       -2.38937        0.35826
C         -1.04045       -1.24213       -0.54733
O          0.97028       -1.48385       -1.90457
O          0.45792       -2.77184       -2.36681
C          0.91178       -2.96436       -3.64662
O          1.61901       -2.18963       -4.27938
C          0.40076       -4.30710       -4.18127
C          0.92397       -5.44318       -3.29152
C         -1.13412       -4.30088       -4.19321
C          0.91064       -4.52035       -5.61520
H          0.73218        0.30911        0.91029
H          0.70669        0.86801       -0.77683
H          2.13982        0.07258       -0.14894
H          0.74777       -2.20754        1.40151
H          0.64062       -3.37479        0.07501
H          2.11876       -2.45236        0.29451
H         -1.41388       -0.49164       -1.25321
H         -1.47558       -2.20023       -0.85214
H         -1.42238       -1.00304        0.45072
H          0.54985       -5.35834       -2.26494
H          0.61516       -6.42190       -3.67518
H          2.01875       -5.42959       -3.23945
H         -1.51941       -3.46581       -4.78959
H         -1.53136       -5.23051       -4.61562
H         -1.54633       -4.19491       -3.18331
H          0.56402       -3.72316       -6.28300
H          2.00622       -4.52363       -5.65115
H          0.55997       -5.47475       -6.02388
