36

C         -1.09572        1.61037        0.34818
C         -1.19259        1.07571        1.57285
C         -2.26128        0.10762        1.99884
C         -1.95770       -1.35962        1.69197
C         -1.17241       -2.07613        2.76831
O         -1.77315       -2.45115        3.78599
C          0.32681       -2.39297        2.63249
C          0.61459       -3.88239        2.38216
C          1.16168       -4.25112        1.00527
C          2.21973       -3.27407        0.49609
C          1.69494       -1.83080        0.44506
C          0.60847       -1.71165       -0.63546
C          2.82755       -0.86443        0.03694
C          1.22162       -1.42349        1.85803
H         -1.79431        1.36052       -0.44449
H         -0.29285        2.30116        0.10479
H         -0.46402        1.36762        2.32750
H         -2.45167        0.25115        3.06872
H         -3.19151        0.38155        1.48425
H         -2.91711       -1.89339        1.63431
H         -1.51196       -1.49170        0.71489
H          0.63824       -2.23093        3.68020
H          1.36854       -4.19930        3.11665
H         -0.27161       -4.49504        2.58807
H          0.33537       -4.33051        0.29173
H          1.60377       -5.25409        1.05591
H          2.55600       -3.59046       -0.49924
H          3.09915       -3.32744        1.15138
H          0.17599       -0.70819       -0.65510
H          1.02491       -1.90031       -1.63182
H         -0.20099       -2.43178       -0.50451
H          3.68442       -0.93912        0.71480
H          3.18458       -1.07093       -0.97763
H          2.47627        0.17497        0.06002
H          0.79352       -0.42489        1.83885
H          2.13114       -1.31349        2.47037
