16

C         -2.43268        0.67705       -0.00019
C         -2.42243       -0.71175       -0.00247
C         -1.20333       -1.39157       -0.00219
C          0.00708       -0.70860       -0.00008
N          1.16344       -1.40212        0.00004
C          2.29947       -0.67231        0.00140
C          2.28929        0.70731        0.00253
N          1.14261        1.42026        0.00292
C         -0.00339        0.70976        0.00167
C         -1.22374        1.37479        0.00190
H         -3.37455        1.21977       -0.00015
H         -3.35618       -1.26831       -0.00447
H         -1.19317       -2.47877       -0.00385
H          3.22630       -1.23400        0.00145
H          3.20773        1.28261        0.00309
H         -1.22963        2.46202        0.00361
