29

C          0.66776       -0.17281        0.31513
C          0.51659        1.26182        0.77810
C          1.01132        2.27415       -0.23993
O          0.19940        2.83174       -0.98653
C          2.50597        2.57477       -0.37581
C          3.13907        2.87180        0.98248
C          3.28646        1.47978       -1.11889
C          2.76265        1.19733       -2.50354
C          3.47698        1.16174       -3.64504
C          2.81169        0.86440       -4.96195
C          4.95939        1.39718       -3.70465
H          0.40453       -0.28752       -0.74096
H          0.02102       -0.83151        0.90321
H          1.69330       -0.52526        0.45202
H         -0.54947        1.46945        0.93572
H          0.99767        1.42106        1.74615
H          2.57292        3.50171       -0.96337
H          3.21218        1.97118        1.60110
H          4.15200        3.26930        0.85759
H          2.55178        3.61284        1.53545
H          4.34006        1.77973       -1.16272
H          3.26807        0.54528       -0.55093
H          1.69316        0.99539       -2.56915
H          2.95722        1.69761       -5.65692
H          3.23875       -0.04092       -5.40566
H          1.73329        0.70457       -4.85617
H          5.20144        2.41977       -3.39850
H          5.49101        0.68998       -3.05964
H          5.34284        1.25914       -4.72128
