60

C          1.35586        0.10905       -0.22215
C          0.37025        0.45099        0.61103
O         -1.01235        0.46172        0.37528
C         -1.62128       -0.01428       -0.75456
O         -1.08737       -0.32052       -1.81315
C         -3.10778       -0.13761       -0.51419
C         -3.43865       -1.22827        0.50720
C         -3.11185       -0.87789        1.96533
C         -3.78002        0.40680        2.46314
C         -5.30666        0.30404        2.51614
C         -5.80196       -0.75933        3.50229
C         -5.35221       -0.49893        4.94428
C         -5.89676        0.81633        5.51083
C         -7.42657        0.84294        5.58646
C         -7.99817       -0.25259        6.49263
C         -7.54853       -0.11840        7.95150
C         -8.01471        1.18514        8.60803
C         -9.53908        1.33393        8.64385
C        -10.23979        0.24305        9.46009
C         -9.86522        0.24356       10.94588
C        -10.17546        1.55405       11.67334
C        -11.65403        1.90873       11.64058
H          1.18107       -0.19293       -1.24787
H          2.38613        0.12665        0.11665
H          0.54425        0.75178        1.63873
H         -3.51951        0.84168       -0.25366
H         -3.56900       -0.40684       -1.47229
H         -4.50542       -1.46951        0.42843
H         -2.90066       -2.14774        0.24652
H         -3.39680       -1.72455        2.59988
H         -2.03076       -0.79284        2.10517
H         -3.38087        0.65348        3.45305
H         -3.49857        1.25847        1.83615
H         -5.72009        1.28415        2.77903
H         -5.70744        0.08333        1.52108
H         -6.89445       -0.81423        3.44653
H         -5.45734       -1.75250        3.19611
H         -5.65886       -1.34284        5.57106
H         -4.25940       -0.49165        5.01173
H         -5.46274        0.98502        6.50217
H         -5.55404        1.66442        4.90843
H         -7.75012        1.83149        5.92911
H         -7.85913        0.73926        4.58554
H         -9.09083       -0.23777        6.42490
H         -7.71304       -1.24296        6.12207
H         -7.91418       -0.98121        8.51802
H         -6.45694       -0.18040        8.02098
H         -7.60365        1.24072        9.62161
H         -7.58732        2.04589        8.08141
H         -9.79101        2.32414        9.03753
H         -9.94308        1.32711        7.62537
H        -11.32333        0.35848        9.34898
H        -10.01602       -0.74467        9.04100
H        -10.39741       -0.57754       11.44062
H         -8.79812        0.01908       11.06099
H         -9.85558        1.45979       12.71718
H         -9.59122        2.37820       11.24905
H        -12.25528        1.10111       12.06963
H        -11.83798        2.81856       12.21892
H        -12.00326        2.09277       10.61999
