18

N          2.29880        0.01986       -0.21989
C          0.91369        0.00593       -0.02096
C          0.20564       -1.19814       -0.09550
C         -1.18956       -1.21218       -0.02302
C         -1.88294       -0.00516        0.08446
S         -3.64894       -0.04845        0.16644
O         -4.13359       -0.68206       -1.04074
O         -4.01658       -0.52471        1.48024
O         -4.13356        1.48717        0.05764
C         -1.19755        1.20950        0.09633
C          0.19832        1.20773        0.02058
H          2.76341       -0.83618        0.06771
H          2.75926        0.84590        0.14983
H          0.73836       -2.13911       -0.20907
H         -1.72443       -2.15843       -0.06189
H         -4.91130        1.50468       -0.53924
H         -1.72794        2.15612        0.15374
H          0.72711        2.15753       -0.00275
