14

C          0.97665       -0.00874       -0.10740
C          0.42299        1.18835        0.66924
C          0.94781        2.48758        0.05351
C         -1.10996        1.21097        0.69091
Cl        -1.78962       -0.17552        1.57811
H          0.60466       -0.01916       -1.13762
H          0.69933       -0.95680        0.36333
H          2.07088        0.02725       -0.14500
H          0.79482        1.13235        1.70037
H          0.61235        2.60052       -0.98316
H          0.59659        3.35644        0.62024
H          2.04282        2.50710        0.05966
H         -1.47682        2.11451        1.18808
H         -1.52257        1.18969       -0.32299
