49

C          0.97875        0.32704        0.21817
C          0.67729        0.57474       -1.26115
O          1.24303       -0.37813       -2.16127
C          2.59471       -0.33959       -2.33354
C          3.07579        0.00368       -3.59194
C          4.43945       -0.12050       -3.87076
C          5.33387       -0.58635       -2.89767
O          6.63776       -0.65313       -3.31727
C          7.69087       -0.81714       -2.52873
N          8.85143       -0.22489       -2.71207
C          9.63921       -0.77056       -1.73694
C         10.97589       -0.52635       -1.39863
C         11.52909       -1.24994       -0.33200
C         10.76479       -2.19137        0.36939
Cl        11.49226       -3.05266        1.67356
C          9.42867       -2.45415        0.04372
C          8.91970       -1.71345       -1.01678
O          7.65834       -1.76632       -1.54473
C          4.84352       -0.93432       -1.64116
C          3.47286       -0.83392       -1.37090
C         -0.86664        0.63165       -1.41486
O         -1.39119        1.75250       -1.39009
N         -1.61205       -0.56333       -1.40169
C         -1.03858       -1.89116       -1.16357
C         -3.05492       -0.51375       -1.46383
C         -3.82358       -1.41287       -0.70004
C         -5.22207       -1.39148       -0.73887
C         -5.88365       -0.47649       -1.55097
C         -5.14450        0.40753       -2.33262
C         -3.74811        0.38265       -2.29319
F         -3.09656        1.17043       -3.16222
H          0.92260       -0.73515        0.47318
H          0.28602        0.87269        0.86840
H          1.98749        0.66974        0.46940
H          1.04224        1.57324       -1.54213
H          2.39239        0.34046       -4.36693
H          4.80695        0.13965       -4.86131
H         11.55873        0.20371       -1.94988
H         12.56602       -1.07079       -0.05432
H          8.82867       -3.18051        0.57623
H          5.48406       -1.31995       -0.85623
H          3.10712       -1.18876       -0.41324
H         -1.07954       -2.11198       -0.09316
H         -1.60047       -2.64294       -1.72919
H         -0.00594       -1.98637       -1.48057
H         -3.35412       -2.12605       -0.02867
H         -5.79071       -2.08854       -0.12757
H         -6.96986       -0.45953       -1.58335
H         -5.64314        1.11006       -2.99320
