35

C          0.96834       -0.01002       -0.18480
C          0.50803       -0.78704        1.00566
C         -0.32946       -0.29860        1.93091
C         -0.72641       -1.04320        3.10264
C         -1.58474       -0.55380        4.00890
C         -1.96938       -1.26858        5.27392
C         -1.53106       -0.51109        6.53475
C         -2.14437        0.88526        6.71235
C         -3.67447        0.91862        6.78630
C         -4.27859        0.17935        7.98452
C         -3.87434        0.72878        9.35850
C         -4.25278        2.18722        9.60006
O         -5.66102        2.36432        9.54740
H          0.59303        1.01836       -0.17853
H          0.62871       -0.49495       -1.10456
H          2.06197        0.03009       -0.19885
H          0.90261       -1.79619        1.10021
H         -0.71984        0.71191        1.82470
H         -0.28011       -2.02433        3.25135
H         -2.03935        0.42099        3.84573
H         -3.05270       -1.42988        5.27893
H         -1.51464       -2.26696        5.29754
H         -1.76220       -1.12582        7.41248
H         -0.43827       -0.40479        6.52244
H         -1.72127        1.33994        7.61551
H         -1.82317        1.53178        5.88714
H         -4.00056        1.96493        6.80008
H         -4.09703        0.49795        5.86672
H         -5.37111        0.20485        7.89294
H         -4.00475       -0.88117        7.93811
H         -4.37042        0.11125       10.11770
H         -2.79625        0.60581        9.50858
H         -3.92052        2.49144       10.59759
H         -3.78182        2.86287        8.87992
H         -5.94430        2.22315        8.62855
