28

C          1.41931       -0.30453        0.08400
C          0.60997       -1.25004       -0.81227
N          0.90104       -2.63894       -0.33541
C         -0.92265       -1.02022       -0.71664
C         -1.45720        0.25545       -1.33521
C         -1.18434        1.51119       -0.76757
C         -1.62395        2.68969       -1.37810
C         -2.37862        2.60928       -2.53950
O         -2.82244        3.72641       -3.19080
C         -2.70752        1.36921       -3.07687
O         -3.48484        1.29815       -4.19766
C         -2.24982        0.19553       -2.49250
C          1.07387       -1.11638       -2.27794
O          1.71812       -0.20394       -2.77231
O          0.71521       -2.17747       -3.03906
H          1.01580       -0.27414        1.10252
H          1.43890        0.71709       -0.30846
H          2.46926       -0.61528        0.15042
H          0.51747       -3.28253       -1.03479
H          1.90987       -2.79217       -0.36853
H         -1.43682       -1.86606       -1.19696
H         -1.24457       -1.05177        0.33338
H         -0.61860        1.58697        0.15791
H         -1.37045        3.64524       -0.93115
H         -2.40503        4.49939       -2.77280
H         -3.69495        2.23069       -4.40509
H         -2.51628       -0.75682       -2.94352
H          1.04637       -1.93825       -3.93114
