30

N          1.70756        0.91142       -0.13712
C          2.81267        0.55411       -0.12125
C          4.16526        0.08012       -0.09927
N          5.12627        1.01253       -0.01343
N          6.28661        0.31861       -0.05835
C          7.52880        0.98598       -0.10996
C          8.42201        0.73367       -1.16319
Cl         7.99657       -0.17262       -2.57587
C          9.70206        1.29954       -1.14899
C         10.10592        2.13136       -0.09691
C         11.50560        2.69500       -0.03863
F         11.51969        4.05369       -0.01142
F         12.17321        2.28536        1.07409
F         12.27996        2.32815       -1.09569
C          9.18654        2.42216        0.92266
C          7.90272        1.85997        0.92015
Cl         6.90792        2.20247        2.29261
C          6.06805       -1.05606       -0.05663
N          7.06094       -1.98287        0.02434
C          4.69769       -1.22619       -0.13788
S          3.98087       -2.78793       -0.31006
O          4.68480       -3.69688        0.66090
C          2.24387       -2.58011        0.07534
F          2.03510       -1.90701        1.23130
F          1.60996       -1.90668       -0.91675
F          1.60713       -3.77421        0.18740
H         10.39129        1.09186       -1.96854
H          9.48855        3.07395        1.74387
H          8.00740       -1.74958        0.31600
H          6.80765       -2.94331        0.28210
