31

O          1.08621        0.08902        0.02868
C          2.31828        0.01833        0.02333
N          3.03319        1.09761        0.47192
C          4.41875        1.22816        0.61736
C          4.91778        2.53906        0.59114
C          6.28981        2.78380        0.67328
C          7.17210        1.71733        0.79515
Cl         8.86371        2.01166        0.88189
C          6.69257        0.41179        0.86594
C          5.30982        0.16031        0.80671
C          4.84319       -1.23354        1.06333
C          5.55452       -2.03892        2.10193
C          6.08838       -3.27250        1.69895
C          6.77723       -4.07088        2.61241
C          6.92644       -3.64820        3.93207
C          6.37676       -2.43216        4.34388
C          5.68356       -1.62609        3.43486
Cl         4.98037       -0.16875        4.03908
N          3.88464       -1.83226        0.45193
C          3.08466       -1.18606       -0.57749
O          3.75802       -0.89301       -1.78959
H          2.44459        1.90765        0.62705
H          4.24523        3.38719        0.47520
H          6.65990        3.80555        0.63289
H          7.40331       -0.40291        0.98463
H          5.96339       -3.61414        0.67302
H          7.18940       -5.02657        2.29601
H          7.45778       -4.27352        4.64626
H          6.48171       -2.12522        5.38215
H          2.30510       -1.90621       -0.85234
H          4.54246       -0.37939       -1.55690
