19

C          1.21472       -0.11682        0.01360
N          0.24976       -1.10646       -0.41003
C         -0.50077       -1.92138        0.39684
O         -0.97637       -2.94296       -0.09794
N         -0.80046       -1.47630        1.66861
C         -1.31732       -0.20690        1.88085
C         -1.66094        0.22294        3.09370
F         -2.15748        1.45455        3.30761
C         -1.50886       -0.66721        4.25854
O         -1.73479       -0.30462        5.40575
N         -1.07460       -1.93042        3.95394
C         -0.63249       -2.36871        2.72226
O         -0.05229       -3.45080        2.66066
H          1.49563       -0.25907        1.05977
H          0.78234        0.87567       -0.13361
H          2.10280       -0.21620       -0.61594
H          0.37410       -1.50910       -1.33257
H         -1.45623        0.42759        1.01168
H         -0.91528       -2.55725        4.72908
