51

C          1.45837        0.28900       -0.16563
C          0.75218       -0.78680        0.20495
C         -0.69693       -0.76811        0.49014
O         -1.23301       -1.62847        1.17125
O         -1.30479        0.25110       -0.16169
C         -2.73728        0.31412       -0.07706
C         -3.37227       -0.31365       -1.31988
C         -3.19309       -1.83257       -1.42480
C         -3.94319       -2.62233       -0.34626
C         -5.45770       -2.69216       -0.56383
C         -5.88215       -3.48304       -1.80626
C         -5.38699       -4.93407       -1.83607
C         -5.86723       -5.79097       -0.65864
C         -7.39086       -5.92196       -0.55273
C         -8.06085       -6.52205       -1.79344
C         -7.62681       -7.95604       -2.11418
C         -8.01215       -8.99125       -1.05186
C         -9.51354       -9.10022       -0.77173
C        -10.32564       -9.48435       -1.99931
H          0.99913        1.26634       -0.27903
H          2.52431        0.21138       -0.35080
H          1.22856       -1.75063        0.34540
H         -3.11403       -0.11645        0.85629
H         -2.99682        1.37814       -0.05042
H         -4.43737       -0.06067       -1.35025
H         -2.91242        0.13569       -2.20895
H         -3.51303       -2.15680       -2.42082
H         -2.12803       -2.08188       -1.37438
H         -3.52618       -3.63401       -0.29693
H         -3.75959       -2.19115        0.64230
H         -5.91691       -3.13901        0.32586
H         -5.87238       -1.68013       -0.62982
H         -6.97589       -3.46342       -1.87563
H         -5.52781       -2.97335       -2.70900
H         -5.69872       -5.39234       -2.78130
H         -4.29164       -4.95328       -1.86242
H         -5.41541       -6.78605       -0.74064
H         -5.48413       -5.37804        0.28181
H         -7.63275       -6.52483        0.32987
H         -7.83047       -4.93636       -0.36005
H         -9.14758       -6.48099       -1.66185
H         -7.85652       -5.89123       -2.66593
H         -8.05823       -8.24507       -3.07927
H         -6.54141       -7.99344       -2.26225
H         -7.63960       -9.97167       -1.37356
H         -7.49366       -8.76704       -0.11226
H         -9.66831       -9.86016        0.00318
H         -9.89589       -8.16028       -0.35895
H         -9.96316      -10.42376       -2.42842
H        -11.37785       -9.61644       -1.72954
H        -10.27914       -8.71113       -2.77199
