78

C          1.17287       -0.30571       -0.33685
C          0.01836       -1.27406       -0.58347
C         -0.80650       -1.05551       -1.84598
C         -1.06264       -2.21111       -2.61224
C         -1.81350       -2.15595       -3.78002
C         -2.15035       -3.40945       -4.52846
C         -2.23232       -0.91076       -4.23864
C         -1.97386        0.28519       -3.52951
C         -2.48918        1.55705       -4.18106
C         -2.14670        1.71444       -5.66388
C         -1.36060        0.19877       -2.24755
N         -1.19791        1.28581       -1.35189
C         -1.46539        2.65256       -1.48819
C         -0.37784        3.45487       -1.85788
C         -0.52128        4.82667       -2.05749
C         -1.75585        5.45230       -1.88055
N         -1.95670        6.80705       -2.20400
C         -1.11732        7.80160       -2.74182
C         -0.38717        7.63341       -3.94231
C         -0.57053        6.44767       -4.87256
C         -1.02028        6.83951       -6.27709
C          0.52549        8.63437       -4.33449
C          0.67557        9.81801       -3.60800
C          1.64201       10.86746       -4.06838
C         -0.10981       10.01402       -2.47431
C         -1.00814        9.02670       -2.03412
C         -1.81008        9.31836       -0.78017
C         -1.01226        9.06869        0.48982
C         -2.79973        4.67857       -1.32960
C         -2.67553        3.28613       -1.16319
C         -3.85427        2.55299       -0.63051
O         -4.12182        1.39551       -0.92212
C         -4.70591        3.27513        0.33096
C         -5.40929        2.58470        1.31972
C         -6.05952        3.30242        2.32553
C         -6.02888        4.70011        2.32558
C         -5.38548        5.38728        1.29518
C         -4.72830        4.66443        0.29702
C         -4.00337        5.35477       -0.77972
O         -4.34488        6.47832       -1.13060
H          0.85642        0.53994        0.28206
H          1.60172        0.08175       -1.26567
H          1.96986       -0.81062        0.22132
H         -0.65400       -1.29125        0.28218
H          0.47019       -2.27428       -0.63243
H         -0.69037       -3.17780       -2.27718
H         -1.24693       -3.85154       -4.95834
H         -2.62234       -4.13230       -3.85446
H         -2.85707       -3.21269       -5.34172
H         -2.80343       -0.87225       -5.16407
H         -3.57492        1.61218       -4.03931
H         -2.06126        2.44313       -3.73020
H         -2.66888        0.98935       -6.29371
H         -2.44103        2.71237       -6.00758
H         -1.06957        1.60538       -5.83060
H         -1.13180        0.99159       -0.38450
H          0.59033        2.98879       -2.03385
H          0.34895        5.39532       -2.37338
H         -2.90536        7.13994       -2.00402
H          0.37507        5.89446       -4.92864
H         -1.32263        5.75200       -4.49467
H         -0.27263        7.44879       -6.79391
H         -1.18657        5.94056       -6.88013
H         -1.95715        7.40552       -6.24484
H          1.11899        8.49582       -5.23684
H          2.64986       10.44658       -4.14188
H          1.33950       11.25475       -5.04639
H          1.68302       11.70945       -3.36942
H         -0.02191       10.94243       -1.91311
H         -2.14217       10.36410       -0.80593
H         -2.73499        8.73538       -0.74902
H         -0.14959        9.74019        0.55335
H         -1.64075        9.24632        1.36857
H         -0.64433        8.03861        0.53582
H         -5.41970        1.49671        1.32839
H         -6.57477        2.77085        3.12269
H         -6.50598        5.25369        3.13157
H         -5.36633        6.47522        1.29191
