44

O          1.06201        0.11389        0.24104
C          2.28929        0.10225        0.11579
C          3.07913       -1.19575        0.13486
C          2.35903       -2.26853       -0.67910
C          3.04524       -3.63652       -0.66182
C          4.38857       -3.73916       -1.39117
C          4.37021       -3.16302       -2.80751
C          5.62690       -3.55090       -3.59658
C          5.92628       -2.56117       -4.72665
C          6.46207       -1.22202       -4.19238
C          5.65234       -0.03830       -4.72075
C          6.08622        1.30013       -4.10337
C          4.91652        2.01892       -3.42042
C          4.69288        1.52257       -1.98738
C          3.25176        1.75127       -1.52613
C          3.05366        1.39907       -0.05203
H          4.08109       -1.01927       -0.26516
H          3.18441       -1.50234        1.18156
H          2.21822       -1.91975       -1.70889
H          1.34707       -2.40201       -0.27571
H          2.35747       -4.36079       -1.11625
H          3.18540       -3.95946        0.37733
H          4.67215       -4.79870       -1.43041
H          5.16501       -3.23137       -0.80645
H          4.28313       -2.07376       -2.74167
H          3.48694       -3.52022       -3.35121
H          5.47573       -4.54932       -4.02605
H          6.49923       -3.62164       -2.93620
H          5.02729       -2.42163       -5.33954
H          6.68457       -3.00212       -5.38521
H          7.50970       -1.10831       -4.49680
H          6.45622       -1.20791       -3.09622
H          4.58658       -0.22107       -4.53909
H          5.77749        0.01707       -5.80944
H          6.45972        1.94259       -4.91006
H          6.91665        1.17357       -3.39823
H          4.00750        1.90582       -4.02340
H          5.13004        3.09455       -3.38479
H          5.38157        2.06154       -1.32375
H          4.93513        0.45879       -1.90238
H          2.57294        1.16773       -2.16104
H          2.99659        2.80755       -1.67495
H          2.45470        2.18244        0.42935
H          3.99403        1.34374        0.50596
