85

C         -1.53570        0.92477       -0.91178
C         -0.09138        1.07160       -0.56266
C          0.48631        2.33782       -0.39916
O         -0.21161        3.50835       -0.50520
C          1.84687        2.49915       -0.12823
C          2.68029        1.39842       -0.01539
C          2.13260        0.13514       -0.13395
C          0.75440       -0.03812       -0.38032
C          0.39306       -1.45600       -0.49276
O          1.20240       -2.21830       -1.03301
N         -0.63093       -2.00832        0.22948
C         -2.05786       -2.15838       -0.15443
C         -1.78644       -2.93987       -1.69890
S         -2.02093       -4.63038       -2.49251
C         -0.62374       -5.64820       -2.01100
C         -0.85921       -7.00742       -1.74439
C          0.17281       -7.85681       -1.32448
C          1.46446       -7.36180       -1.18224
C          1.72659       -6.03470       -1.51048
C          0.69269       -5.19435       -1.94689
C         -3.20756       -2.40528        1.27259
O         -3.12384       -1.45734        2.37105
C         -4.70506       -2.32486        1.11388
N         -5.37738       -3.41292        0.43807
C         -6.72539       -2.95540       -0.07726
C         -6.64703       -1.52215       -0.60537
C         -7.83563       -0.58044       -0.78911
C         -7.25655        0.86229       -0.82448
C         -6.22420        1.03395       -1.94224
C         -5.15342       -0.07178       -1.97851
C         -5.70599       -1.52685       -1.80196
C         -4.52936       -2.61105       -1.70436
C         -4.42913       -3.83072       -0.59487
C         -3.05590       -4.80219        0.26734
O         -3.22893       -6.04279        0.24039
N         -1.73746       -4.47968        0.90654
C         -0.91696       -3.80787        2.33171
C         -1.39247       -4.56069        3.58541
C          0.61514       -4.11377        2.18171
C         -0.81192       -2.25289        2.80712
H         -1.97704        1.79903       -1.39085
H         -1.66134        0.13510       -1.65918
H         -2.11257        0.73576       -0.00037
H         -1.09761        3.34763       -0.85700
H          2.25753        3.49812       -0.02372
H          3.74408        1.51553        0.16175
H          2.78679       -0.73358       -0.04534
H         -0.34660       -2.98178        0.27175
H         -2.38339       -1.16803       -0.41032
H         -2.18717       -2.25729       -2.45940
H         -0.74229       -2.80984       -1.95134
H         -1.86076       -7.42251       -1.84737
H         -0.03726       -8.90134       -1.10610
H          2.26619       -8.01075       -0.83818
H          2.74000       -5.64685       -1.43716
H          0.95129       -4.18819       -2.25533
H         -3.10784       -3.33318        1.81450
H         -3.43408       -1.97130        3.15540
H         -5.22959       -2.23165        2.07726
H         -4.71036       -1.33690        0.67164
H         -7.09908       -3.63500       -0.85570
H         -7.44262       -2.99941        0.74770
H         -6.23569       -0.94942        0.21512
H         -8.50646       -0.65379        0.07485
H         -8.40571       -0.78570       -1.69681
H         -6.76356        1.09152        0.13524
H         -8.05544        1.60492       -0.92193
H         -5.72621        2.00775       -1.82415
H         -6.74759        1.06840       -2.90259
H         -4.44155        0.14293       -1.16966
H         -4.58422        0.01251       -2.91254
H         -6.28486       -1.76034       -2.70613
H         -3.73005       -1.92256       -1.56207
H         -4.42243       -3.03754       -2.70982
H         -4.89570       -4.66782       -1.14191
H         -1.34615       -5.42233        0.91713
H         -1.02785       -5.58830        3.58961
H         -0.98873       -4.08483        4.49397
H         -2.47972       -4.55224        3.67643
H          1.11389       -3.45111        1.46449
H          1.12979       -3.91344        3.13593
H          0.81820       -5.14082        1.89280
H          0.22813       -1.93419        2.97372
H         -1.13655       -1.44318        2.16184
H         -1.29758       -2.07920        3.77617
