17

C          1.02078       -0.01686        0.11611
C          0.53235        0.29768        1.50150
N          0.58522        1.60285        1.86089
C          0.18311        1.88341        3.10234
N         -0.25406        0.99809        3.99838
C         -0.28766       -0.27753        3.62369
N         -0.72571       -1.16584        4.52325
C         -0.76648       -2.46733        4.16254
C         -0.37248       -2.89768        2.91642
N          0.07599       -2.03618        1.98451
C          0.11137       -0.72038        2.34666
H          0.84994        0.83693       -0.54822
H          0.49606       -0.87420       -0.31643
H          2.09394       -0.22897        0.14131
H          0.21600        2.92285        3.41043
H         -1.12992       -3.15682        4.91620
H         -0.40772       -3.94293        2.63260
