31

C          0.97921       -0.11325        0.01375
C          0.54295       -1.51375       -0.28018
O          0.57560       -2.33587        0.78904
N          0.17340       -1.87210       -1.45850
C         -0.22784       -3.19197       -1.61202
N         -1.52965       -3.44877       -1.35233
C         -1.97773       -4.71308       -1.54853
C         -1.10639       -5.68311       -2.02912
N         -1.26458       -7.01775       -2.31807
C         -0.08168       -7.40907       -2.74594
N          0.82521       -6.38161       -2.75703
C          2.21499       -6.48385       -3.14254
O          2.45194       -5.88711       -4.41782
C          1.85156       -6.53584       -5.54103
C          2.50815       -7.87229       -5.88600
O          2.05037       -8.89780       -5.00568
C          0.19337       -5.26870       -2.27775
N          0.70393       -4.04127       -2.08955
H          0.29358        0.33892        0.73529
H          0.97514        0.48533       -0.90153
H          1.99258       -0.12214        0.42396
H          0.85747       -1.88426        1.59954
H         -3.01588       -4.91379       -1.32103
H          0.17130       -8.41175       -3.06896
H          2.80178       -5.93330       -2.39931
H          2.54092       -7.52577       -3.10380
H          0.77280       -6.64332       -5.39131
H          1.99641       -5.85502       -6.38658
H          2.23755       -8.16634       -6.90476
H          3.59686       -7.80806       -5.79868
H          2.43729       -9.73265       -5.32583
