30

C          1.48384       -0.04732        0.18955
C          1.02543        1.26411        0.30067
C         -0.33226        1.55690        0.12098
C         -1.24971        0.54329       -0.16775
N         -2.61753        0.76716       -0.43743
C         -3.38403        1.96029       -0.44290
C         -4.44365        2.03825        0.48084
C         -5.27688        3.15057        0.53160
C         -5.05823        4.21479       -0.33570
C         -4.00076        4.18634       -1.25600
C         -3.80923        5.27275       -2.12625
C         -2.77716        5.26955       -3.06197
C         -1.93135        4.17266       -3.14793
C         -2.12046        3.07781       -2.29988
C         -3.14097        3.05700       -1.32022
C         -0.76520       -0.77045       -0.29116
C          0.58663       -1.06781       -0.10559
H          2.53833       -0.27204        0.32605
H          1.72584        2.06505        0.52288
H         -0.65972        2.58845        0.21616
H         -3.17360       -0.02860       -0.13838
H         -4.62606        1.21887        1.17194
H         -6.09806        3.18591        1.24230
H         -5.72782        5.07120       -0.29134
H         -4.47308        6.13384       -2.08589
H         -2.64276        6.11804       -3.72728
H         -1.12750        4.15809       -3.87895
H         -1.45793        2.22321       -2.41405
H         -1.44615       -1.57928       -0.54532
H          0.93519       -2.09251       -0.20248
