33

O          1.07330        0.11623        0.01008
C          2.30723        0.08235        0.05243
C          2.97156        0.22751        1.37179
C          2.55839       -0.67212        2.36623
C          3.20034       -0.68667        3.59826
C          4.26171        0.18570        3.83501
C          4.66703        1.11987        2.86684
C          5.74829        1.97972        3.12409
C          6.15501        2.92701        2.18553
C          5.46211        3.05344        0.99062
C          4.38324        2.21010        0.72255
C          3.98899        1.19063        1.62570
N          3.06350       -0.02210       -1.11097
O          2.30156        0.15958       -2.29889
C          4.43609       -0.29365       -1.31635
C          5.07689        0.23931       -2.44426
C          6.45854        0.11138       -2.60929
C          7.21087       -0.58722       -1.66900
C          6.57905       -1.17708       -0.57795
C          5.19886       -1.03662       -0.40673
H          1.74747       -1.37146        2.17159
H          2.88778       -1.38642        4.36938
H          4.76891        0.14014        4.79737
H          6.29345        1.91216        4.06340
H          7.00481        3.57166        2.39325
H          5.76141        3.79956        0.25898
H          3.85930        2.35238       -0.22072
H          1.38690        0.12199       -1.94568
H          4.51257        0.81560       -3.17397
H          6.94646        0.57384       -3.46317
H          8.28745       -0.67550       -1.78816
H          7.15956       -1.73998        0.14856
H          4.74108       -1.53054        0.44437
