10

O          1.30635        0.47983        0.50124
C          2.30874       -0.06909        0.06160
O          2.79905       -1.23826        0.58461
P          3.22374        0.70734       -1.32000
O          4.22413       -0.46816       -1.35944
O          2.09037        0.29919       -2.44507
O          4.08874        1.44133       -2.62611
H          3.61498       -1.44174        0.05900
H          2.25988       -0.57056       -2.84437
H          4.55110        0.71589       -3.08712
