22

C          0.56543        0.23443        0.01448
C          0.58783       -0.34038       -1.39339
O          1.00618       -1.71108       -1.40667
C          2.35341       -1.87223       -1.56931
C          2.80767       -2.48649       -2.73549
C          4.16928       -2.76689       -2.89043
C          5.07487       -2.44022       -1.87203
C          6.50676       -2.77827       -2.05553
O          6.98516       -3.37554       -3.00230
O          7.27636       -2.34724       -1.03983
C          4.60793       -1.83670       -0.69878
C          3.24665       -1.56916       -0.54378
H          0.29582       -0.52647        0.75372
H         -0.13877        1.06851        0.08302
H          1.55038        0.62711        0.28603
H         -0.43860       -0.33850       -1.77803
H          1.18138        0.28079       -2.07609
H          2.10380       -2.76320       -3.51599
H          4.51810       -3.25533       -3.79832
H          8.17940       -2.63622       -1.28732
H          5.28896       -1.59514        0.11327
H          2.89507       -1.16093        0.39725
