31

C          1.02710       -0.79714       -0.41800
C          0.55893       -1.64344        0.74813
C          1.09340       -1.23654        2.13320
C          0.68401       -2.33336        3.10004
O          0.83654       -3.53085        2.92525
O          0.08934       -1.81301        4.20678
C          0.28060       -0.41007        4.21332
C          0.46190        0.01142        2.76021
C          1.27817        1.31183        2.75442
C          1.54640        1.92635        1.42817
C          2.75099        2.12302        0.77822
N          2.57295        2.76217       -0.41725
C          1.28264        2.98386       -0.50052
N          0.61950        2.51948        0.60158
C         -0.80541        2.61703        0.79873
H          0.45470        0.12722       -0.48078
H          0.85623       -1.32955       -1.35982
H          2.09462       -0.57132       -0.35214
H         -0.53847       -1.66995        0.75628
H          0.87709       -2.67279        0.53715
H          2.18759       -1.17770        2.14121
H          1.15438       -0.19280        4.83944
H         -0.59023        0.07533        4.66525
H         -0.52969        0.17517        2.32464
H          0.76491        2.05830        3.37622
H          2.24308        1.13255        3.24926
H          3.73957        1.83475        1.11367
H          0.78306        3.46680       -1.33044
H         -1.22997        1.61119        0.78534
H         -0.99528        3.10825        1.75532
H         -1.24803        3.20123       -0.01232
