30

C          0.95393        0.86899        0.35611
C          0.34732        0.70222       -0.82643
C         -1.09290        0.36076       -1.00231
N         -1.69012        1.38093       -1.82422
C         -2.51005        1.20122       -2.90188
O         -3.37383        2.05644       -3.11295
C         -2.46290       -0.10195       -3.71984
N         -1.12595       -0.59082       -4.10892
C         -0.86116       -2.01645       -3.90090
C         -1.69409       -2.84597       -4.83452
C         -1.22526       -3.87453       -5.55432
C         -0.41460        0.23022       -4.99123
O         -0.91442        1.30208       -5.36442
C          0.99079       -0.11170       -5.49397
Cl         2.12000       -0.42508       -4.16547
Cl         0.96640       -1.40485       -6.69542
H          0.42099        0.76733        1.29621
H          2.01135        1.11335        0.40371
H          0.93626        0.81671       -1.73246
H         -1.21127       -0.63013       -1.43465
H         -1.62935        0.36604       -0.04696
H         -1.84665        2.27684       -1.37860
H         -2.97340       -0.86367       -3.11914
H         -3.04391        0.04947       -4.63781
H          0.19641       -2.24648       -4.02159
H         -1.12736       -2.26821       -2.86970
H         -2.75370       -2.61418       -4.91219
H         -1.88271       -4.44207       -6.20656
H         -0.18197       -4.17477       -5.51889
H          1.37781        0.77439       -6.00679
