37

O          0.93643       -0.04922        0.63214
C          2.12457       -0.14936        0.32815
C          2.84647        1.13169        0.15012
C          2.12154        2.33492        0.14059
C          2.77842        3.55312       -0.00574
C          4.16590        3.57896       -0.12185
C          4.90719        2.38818       -0.09305
C          6.30675        2.40995       -0.17373
C          7.03626        1.22419       -0.13377
C          6.37018        0.00431       -0.04068
C          4.96844       -0.03796        0.02669
C          4.23319        1.14572        0.02568
C          4.26471       -1.34906        0.06317
N          4.99319       -2.42114       -0.02339
C          4.37225       -3.67039        0.00889
C          5.17540       -4.81174       -0.08315
C          4.61101       -6.08398       -0.04172
C          3.23148       -6.22146        0.08679
C          2.40900       -5.08750        0.15927
C          1.02167       -5.21402        0.25789
C          0.22311       -4.07832        0.29025
C          0.80340       -2.80649        0.24903
C          2.19613       -2.63319        0.19211
C          2.98889       -3.79159        0.12343
N          2.85868       -1.33974        0.17585
H          1.03813        2.32566        0.25005
H          2.21013        4.47998       -0.01966
H          4.66608        4.53964       -0.22961
H          6.84148        3.35411       -0.25893
H          8.12220        1.24908       -0.18266
H          6.95194       -0.91550       -0.02477
H          6.25118       -4.69900       -0.18824
H          5.24454       -6.96390       -0.11148
H          2.80134       -7.22011        0.12052
H          0.55147       -6.19377        0.29490
H         -0.85882       -4.17403        0.34455
H          0.11039       -1.97310        0.25438
