23

Cl         1.44654        0.12711        0.67323
C          2.96172        0.48296       -0.00214
C          3.87253        1.34716        0.45426
Cl         3.77695        2.33158        1.82950
C          5.11191        1.18807       -0.40710
Cl         6.23122        2.54078       -0.37751
C          5.71126       -0.18304        0.03968
C          7.00710       -0.59161       -0.59169
O          7.56127       -1.80221       -0.06639
C          6.83815       -1.88379       -1.30265
C          5.43033       -2.37474       -1.16329
Cl         4.83583       -2.99240       -2.69988
C          4.62258       -1.23401       -0.48433
C          3.58539       -0.27483       -1.18006
Cl         2.38944       -0.98721       -2.24866
C          4.42816        0.89305       -1.77867
Cl         3.44547        2.28087       -2.42104
Cl         5.52243        0.44861       -3.11972
H          5.80969       -0.24431        1.13198
H          7.68980        0.16985       -0.93203
H          7.37853       -2.11344       -2.20724
H          5.44348       -3.23587       -0.48415
H          4.12831       -1.69376        0.38551
