16

C          0.93996       -0.05292       -0.01377
C          0.55646       -1.01359       -1.12897
C          1.07927       -2.39594       -0.90845
C          2.30642       -2.84956       -0.46136
C          2.27084       -4.26397       -0.45917
C          1.02915       -4.64173       -0.91470
N          0.31447       -3.50526       -1.18609
H          0.59006       -0.41313        0.95956
H          0.49487        0.93103       -0.19327
H          2.02582        0.07788        0.04443
H         -0.53728       -1.03715       -1.20917
H          0.93914       -0.63565       -2.08416
H          3.14163       -2.22784       -0.16512
H          3.06731       -4.93342       -0.16184
H          0.59422       -5.61948       -1.07089
H         -0.63280       -3.48645       -1.54196
