33

O          0.15348        2.52376        0.70115
C          0.13179        1.32043        0.47101
N         -1.02978        0.62524        0.43742
C         -1.19210       -0.61514       -0.11366
O         -2.32526       -0.94555       -0.47242
C          0.06342       -1.53147       -0.21370
C          0.00122       -2.47435        1.03035
C          1.01890       -2.53007        2.00109
C          0.91641       -3.38340        3.10450
C         -0.20107       -4.19712        3.26281
C         -1.21792       -4.16517        2.31515
C         -1.11784       -3.31649        1.21073
C          0.06931       -2.31929       -1.55970
C          0.65400       -3.59907       -1.65450
C          0.70406       -4.28207       -2.87287
C          0.19214       -3.69309       -4.02491
C         -0.36246       -2.41813       -3.96474
C         -0.41601       -1.73294       -2.74711
C          1.35786       -0.67632       -0.20490
O          2.47826       -1.11830       -0.47368
N          1.26246        0.63437        0.17491
H         -1.86983        1.18177        0.51935
H          1.92356       -1.93098        1.92371
H          1.71776       -3.41620        3.83931
H         -0.27573       -4.86045        4.12054
H         -2.09037       -4.80384        2.42989
H         -1.92803       -3.32580        0.48060
H          1.09234       -4.08229       -0.78248
H          1.15319       -5.27151       -2.91857
H          0.23449       -4.22445       -4.97268
H         -0.75288       -1.95184       -4.86648
H         -0.85050       -0.73521       -2.75132
H          2.12266        1.16505        0.17050
