26

C          0.95109        0.07095        0.05073
C         -0.35277        0.07095        0.05073
C         -1.87277        0.07095        0.05073
N         -2.34305        1.19914       -0.74241
C         -3.79992        1.24944       -0.79565
C         -4.38165        0.22024       -1.79125
C         -5.72272        0.79101       -2.26995
C         -5.45006        2.26087       -2.20209
C         -6.17221        3.28353       -2.79565
C         -5.77165        4.59976       -2.56142
C         -4.67368        4.87530       -1.73296
C         -3.95998        3.83790       -1.12731
C         -4.34812        2.52915       -1.37729
H          2.01642        0.07346        0.04201
H         -2.21277       -0.88217       -0.36831
H         -2.22303        0.14299        1.08668
H         -1.98951        2.05230       -0.31659
H         -4.24624        1.12190        0.19950
H         -3.71647        0.11247       -2.66109
H         -4.49418       -0.77557       -1.34969
H         -5.96055        0.45567       -3.28341
H         -6.53482        0.52537       -1.58552
H         -7.02975        3.07181       -3.42607
H         -6.31865        5.42041       -3.01899
H         -4.38009        5.90690       -1.55519
H         -3.12389        4.06362       -0.47445
