17

C          1.06462       -0.04477        0.04254
C          0.39856       -1.01985        0.99967
C         -1.02299       -0.60623        1.36437
N          0.41979       -2.37845        0.49973
C          0.94877       -3.25818        1.41398
O          0.97059       -4.46896        1.28859
N          1.43211       -2.55019        2.46042
C          1.22430       -1.21675        2.28227
O          1.59374       -0.33934        3.04780
H          1.01595        0.98063        0.42592
H          0.58071       -0.06399       -0.94033
H          2.12328       -0.28713       -0.10504
H         -1.03939        0.38559        1.82901
H         -1.66520       -0.58253        0.47731
H         -1.47333       -1.30731        2.07750
H         -0.06095       -2.71730       -0.32375
H          1.91103       -2.95861        3.24389
