38

C          1.15626       -0.07229       -0.19821
O          0.79601        0.22708       -1.54803
C          0.93141        1.54112       -1.88506
O          1.38495        2.40273       -1.14363
C          0.41102        1.77995       -3.29663
C          1.06297        3.05350       -3.92103
C         -0.02260        4.11197       -4.30920
C          0.62146        5.41092       -4.89339
C          1.50898        5.16177       -6.12261
C         -0.40135        6.50245       -5.24682
C         -0.96608        3.38638       -5.26174
C         -1.51856        2.26160       -4.77767
C         -1.14154        1.91349       -3.33899
C         -1.88704        0.65790       -2.88520
C         -1.54913        3.14164       -2.48798
C         -0.83975        4.41057       -3.01141
H          0.79115       -1.07654        0.03418
H          0.68928        0.62796        0.50265
H          2.24452       -0.05985       -0.09158
H          0.73585        0.92112       -3.90220
H          1.80948        3.50691       -3.25870
H          1.61205        2.73237       -4.81617
H          1.27386        5.83236       -4.11578
H          0.94782        4.70900       -6.94578
H          1.93060        6.10436       -6.49007
H          2.35599        4.51290       -5.88318
H         -0.94841        6.84537       -4.36447
H          0.10262        7.38293       -5.66144
H         -1.12642        6.15694       -5.99003
H         -1.16758        3.74196       -6.26529
H         -2.19972        1.65102       -5.36006
H         -2.96603        0.75410       -3.05540
H         -1.54450       -0.22625       -3.43480
H         -1.75026        0.46829       -1.81596
H         -1.31290        2.99396       -1.42744
H         -2.63640        3.29238       -2.53315
H         -0.17623        4.80810       -2.23306
H         -1.60783        5.17210       -3.18543
