25

N          2.44618       -0.35082        0.21725
C          1.05737       -0.19874        0.13805
C          0.24682       -1.27925       -0.21113
C         -1.14379       -1.14141       -0.24755
C         -1.74405        0.06209        0.14251
S         -3.51058        0.16594       -0.06192
O         -3.81033       -0.14537       -1.44009
O         -4.05513       -0.65907        1.00592
N         -4.08395        1.67948        0.28521
C         -3.44553        2.84818       -0.13350
N         -2.55107        2.90726       -1.08523
C         -1.93982        4.14973       -1.06342
C         -2.40103        5.02180       -0.10037
S         -3.70754        4.30096        0.74067
C         -0.94575        1.08553        0.64764
C          0.44856        0.95877        0.62638
H          2.80954       -1.07075       -0.40043
H          2.95315        0.52332        0.11415
H          0.69045       -2.23267       -0.48516
H         -1.75608       -1.97935       -0.57592
H         -4.68558        1.73479        1.09851
H         -1.13341        4.35721       -1.75706
H         -2.05488        6.01766        0.13633
H         -1.36101        1.99960        1.04866
H          1.05801        1.78326        0.98806
