33

C          1.12532       -0.15185        0.16085
C          0.72405        0.56136       -1.13994
C          1.45030       -0.10027       -2.30918
C         -0.83754        0.63718       -1.23005
C         -1.31521        2.07697       -0.95089
C         -1.15254        2.97237       -2.14365
C         -1.16477        2.52250       -3.41182
C         -0.96011        3.45425       -4.58645
C         -2.23766        4.14666       -5.04781
C         -2.67639        5.19067       -4.05545
O         -2.43062        6.38619       -4.18072
C         -1.33231        1.05775       -3.73905
C         -1.50961        0.14146       -2.52279
H          0.80209       -1.19865        0.15100
H          0.67541        0.33802        1.03098
H          2.21193       -0.13525        0.29739
H          1.12971        1.57917       -1.06342
H          1.06749       -1.10240       -2.51954
H          1.37669        0.51045       -3.21199
H          2.52072       -0.19484       -2.09243
H         -1.24588        0.01478       -0.42111
H         -2.37536        2.07376       -0.66741
H         -0.76808        2.49737       -0.09890
H         -1.01260        4.03081       -1.93427
H         -0.19789        4.20189       -4.33177
H         -0.54544        2.88281       -5.42698
H         -2.05900        4.65117       -6.00414
H         -3.06109        3.44037       -5.19595
H         -3.20658        4.81437       -3.16369
H         -0.46421        0.72259       -4.31674
H         -2.19891        0.93007       -4.39996
H         -1.19276       -0.87880       -2.76638
H         -2.58855        0.06441       -2.32399
