52

C          1.02867        0.34406        0.09381
C          0.67663        0.31871       -1.38634
C          1.12339       -0.96013       -2.10036
C          0.55240       -2.26361       -1.52859
C         -0.99128       -2.36962       -1.51977
C         -1.61431       -2.24322       -2.93176
C         -1.20922       -3.32742       -3.92443
C         -1.46590       -3.68084       -0.85043
N         -1.11075       -3.75199        0.56990
C         -1.61102       -4.97248        1.21253
C         -1.02744       -6.29915        0.66748
C          0.51830       -6.35888        0.70457
C          1.14785       -6.24598        2.08525
C         -1.64664       -7.52660        1.37302
C         -3.17012       -7.67406        1.23881
C         -3.73157       -7.60965       -0.18447
C         -3.18026       -8.68522       -1.10683
H          0.47178       -0.41410        0.65256
H          0.77872        1.31935        0.52348
H          2.09858        0.17054        0.24653
H         -0.40171        0.46749       -1.50772
H          1.16258        1.17238       -1.87390
H          0.87367       -0.87931       -3.16422
H          2.21836       -1.02094       -2.05510
H          0.97447       -3.10357       -2.09388
H          0.94205       -2.37854       -0.51173
H         -1.39155       -1.53977       -0.92274
H         -2.70769       -2.25823       -2.83713
H         -1.36837       -1.26493       -3.35925
H         -1.52292       -4.32032       -3.58881
H         -1.68959       -3.14526       -4.89139
H         -0.12870       -3.34239       -4.09089
H         -2.55592       -3.75338       -0.94750
H         -1.02364       -4.52308       -1.39008
H         -0.10275       -3.69792        0.68651
H         -1.40015       -4.89510        2.28576
H         -2.70317       -4.97272        1.13084
H         -1.29513       -6.38333       -0.39159
H          0.84604       -7.30260        0.25038
H          0.93141       -5.56810        0.06688
H          0.84487       -7.07272        2.73360
H          2.23904       -6.28040        1.99738
H          0.88690       -5.30366        2.57444
H         -1.17406       -8.43681        0.98283
H         -1.40942       -7.49628        2.44339
H         -3.46015       -8.63172        1.68955
H         -3.66259       -6.90222        1.84210
H         -4.82114       -7.72276       -0.13031
H         -3.55080       -6.62267       -0.62416
H         -3.36827       -9.68363       -0.70022
H         -3.66418       -8.62190       -2.08693
H         -2.10343       -8.57187       -1.26170
