36

C          0.94374       -0.11887        0.08909
C          0.56313       -0.87237        1.33188
C          0.69910       -2.20568        1.37686
C          0.35971       -3.02147        2.55010
O          0.51220       -4.23544        2.53403
O         -0.12963       -2.34649        3.65190
C         -0.31067       -0.94466        3.65049
C          0.02275       -0.17990        2.51647
C         -0.19894        1.20837        2.55174
C         -0.74729        1.86453        3.67305
C         -1.04313        3.33065        3.66821
C         -1.03589        1.05003        4.77014
O         -1.57427        1.49142        5.94805
C         -1.74522        0.39170        6.70646
C         -1.33507       -0.74930        6.06310
C         -0.84623       -0.33185        4.79923
C         -1.55128       -2.05946        6.72023
C         -2.93824       -2.06854        7.40578
C         -3.38661       -0.74908        8.10486
C         -2.41716        0.44662        8.01614
H          0.24710        0.69208       -0.14111
H          0.94119       -0.77394       -0.79019
H          1.95090        0.29838        0.19314
H          1.08757       -2.77003        0.53607
H          0.03870        1.82268        1.68602
H         -2.11577        3.49218        3.82132
H         -0.49193        3.83095        4.47007
H         -0.76590        3.79667        2.71785
H         -1.47983       -2.88972        6.01108
H         -0.77567       -2.21072        7.48163
H         -2.98745       -2.89780        8.12106
H         -3.68938       -2.29790        6.63650
H         -3.62374       -0.94829        9.15654
H         -4.33736       -0.44479        7.64407
H         -1.66558        0.36476        8.81031
H         -2.95363        1.38929        8.16222
