31

C          1.17177        0.64242        0.54090
C          0.77692       -0.27688        1.69632
C          1.54320        0.10468        2.95923
C         -0.72246       -0.29231        1.97342
O         -1.22288       -0.73202        3.00330
O         -1.42961        0.15331        0.90453
C         -2.85791       -0.03212        0.92867
C         -3.31785       -0.34152       -0.50103
O         -3.34736       -1.75464       -0.78087
C         -2.10465       -2.27241       -1.02007
C         -1.58099       -2.29114       -2.31030
C         -0.32746       -2.86599       -2.53612
C          0.39253       -3.41835       -1.47464
C         -0.15433       -3.42883       -0.19271
C         -1.41530       -2.87815        0.02849
H          0.86004        1.67529        0.72986
H          0.70525        0.31859       -0.39652
H          2.25538        0.63252        0.38496
H          1.05319       -1.30074        1.42033
H          1.25251        1.09844        3.31577
H          1.34597       -0.60883        3.76681
H          2.62289        0.10594        2.77543
H         -3.15948       -0.83420        1.61140
H         -3.29460        0.91376        1.26407
H         -4.35531       -0.00580       -0.60769
H         -2.72028        0.19354       -1.25017
H         -2.14684       -1.87812       -3.13968
H          0.08607       -2.89362       -3.54105
H          1.37186       -3.85683       -1.64887
H          0.39638       -3.86695        0.63540
H         -1.85143       -2.90571        1.02326
