22

O          0.64341       -0.04399       -0.12563
C          0.40146        0.60144        1.11758
C          0.98125       -0.13049        2.34169
N         -0.05680       -0.23992        3.38583
C         -0.62829       -1.38652        3.48871
O         -1.59642       -1.52517        4.41156
C         -0.34225       -2.61479        2.65210
C         -1.33911       -2.73821        1.50096
O         -1.13487       -3.97774        0.82343
N          1.03544       -2.63005        2.11627
C          1.59984       -1.47946        2.01438
O          2.86676       -1.44061        1.55950
H          1.58126        0.05826       -0.36130
H          0.80878        1.61728        1.06013
H         -0.68485        0.71204        1.20902
H          1.77683        0.48968        2.77312
H         -1.96598       -2.42149        4.45671
H         -0.42425       -3.49330        3.30377
H         -2.37017       -2.72167        1.86854
H         -1.23040       -1.92921        0.77267
H         -0.17123       -4.02110        0.65453
H          3.27182       -0.56207        1.60943
