83

C          1.09043       -0.01784        0.09993
C          0.82091        1.10876        1.08681
C          1.32808        2.48260        0.62498
C          0.81964        2.96579       -0.73968
C         -0.70464        3.06014       -0.84118
C         -1.39316        4.20383       -0.08687
C         -0.99180        5.61240       -0.48848
C         -1.16057        2.91854       -2.27510
O         -1.87862        1.97724       -2.57843
O         -0.65494        3.85411       -3.11361
C         -1.20205        4.12983       -4.44080
C         -1.39562        2.98561       -5.46025
C         -2.32491        1.79302       -5.19284
O         -3.73941        2.00603       -5.01888
C         -4.28306        2.85201       -4.11079
O         -3.70047        3.65545       -3.39521
C         -5.77684        2.64605       -3.99513
C         -6.51577        2.87571       -5.31987
C         -6.40638        1.75476       -6.33652
C         -6.07201        1.29434       -3.32921
C         -5.56812        1.17277       -1.88247
C         -6.02551        2.27271       -0.92091
C         -7.53332        2.46735       -0.89188
O         -1.67183        3.44825       -6.83159
C         -2.85667        4.05285       -7.10497
O         -3.57647        4.58183       -6.26856
C         -3.20955        4.06392       -8.58921
C         -2.77390        5.40376       -9.20474
C         -1.26867        5.60872       -9.28212
C         -2.73212        2.85120       -9.41508
C         -3.42968        1.51697       -9.10650
C         -4.93312        1.45415       -9.38887
C         -5.30762        1.47353      -10.85896
H          0.54215        0.12379       -0.83634
H          0.76916       -0.97444        0.52551
H          2.15772       -0.09149       -0.12981
H         -0.25181        1.14887        1.30590
H          1.31014        0.86342        2.03699
H          1.06946        3.22374        1.39014
H          2.42378        2.45076        0.58483
H          1.27492        3.93595       -0.96696
H          1.19737        2.28463       -1.51326
H         -1.11082        2.15104       -0.37690
H         -2.48020        4.11137       -0.21407
H         -1.20276        4.08316        0.98685
H         -1.30085        5.83835       -1.51250
H         -1.48688        6.33569        0.16904
H          0.08549        5.77051       -0.39983
H         -2.06025        4.79528       -4.33846
H         -0.45341        4.79845       -4.88976
H         -0.39709        2.53561       -5.55040
H         -2.27857        1.17792       -6.10026
H         -1.95041        1.09425       -4.44646
H         -6.12944        3.45261       -3.34013
H         -7.57953        3.02406       -5.09805
H         -6.16267        3.80702       -5.77990
H         -6.74030        0.79523       -5.93564
H         -7.02870        1.98561       -7.20607
H         -5.37924        1.63938       -6.68362
H         -7.15164        1.10691       -3.34906
H         -5.60805        0.48209       -3.90364
H         -5.89560        0.20190       -1.49016
H         -4.47172        1.14281       -1.87828
H         -5.68254        2.01533        0.08830
H         -5.53930        3.22208       -1.17208
H         -8.04369        1.53259       -0.64144
H         -7.80121        3.21674       -0.14085
H         -7.91437        2.81946       -1.85521
H         -4.30647        4.06202       -8.61750
H         -3.19356        5.48402      -10.21527
H         -3.20747        6.22749       -8.62355
H         -0.78667        4.83229       -9.88252
H         -1.05028        6.57461       -9.74834
H         -0.81533        5.61142       -8.28658
H         -2.86701        3.06678      -10.48189
H         -1.65583        2.70213       -9.26755
H         -2.93378        0.72557       -9.68306
H         -3.26989        1.26825       -8.05415
H         -5.32279        0.52508       -8.95321
H         -5.45186        2.27597       -8.89132
H         -4.84427        0.64065      -11.39554
H         -6.39446        1.37487      -10.96095
H         -5.01201        2.41180      -11.33490
