22

O          0.91497        0.36142        0.17857
C          2.10742        0.09555        0.12280
O          2.81045       -0.28947        1.21757
C          2.93928        0.12324       -1.15835
N          2.82396       -1.12268       -1.93461
C          3.37526       -1.03238       -3.30295
C          4.89081       -0.96099       -3.42640
O          5.57830       -1.63892       -4.17050
O          5.47014       -0.00310       -2.67587
C          3.14881       -2.37609       -1.23436
C          4.53744       -2.39080       -0.62122
O          4.91719       -1.65634        0.28282
O          5.36634       -3.27353       -1.20513
H          3.74383       -0.54636        1.02619
H          2.55579        0.96654       -1.74692
H          3.96679        0.38826       -0.89575
H          3.04508       -1.91141       -3.87051
H          2.95532       -0.16522       -3.82575
H          6.41902       -0.05358       -2.91873
H          2.43286       -2.55792       -0.42387
H          3.03252       -3.23454       -1.90706
H          6.23397       -3.17015       -0.76257
