44

F          1.04999       -0.50150        0.08015
C          2.39914       -0.33752       -0.00446
F          2.81710       -0.02834        1.25455
F          2.90939       -1.57059       -0.27571
C          2.78689        0.71735       -1.01484
C          3.52663        0.39289       -2.15263
C          3.79281        1.36972       -3.10378
C          3.34924        2.68282       -2.91002
C          2.68356        3.08932       -1.73240
C          2.23408        4.61245       -1.53465
C          3.48740        5.58019       -1.32766
C          3.47537        6.63013       -0.37648
C          4.55806        7.50381       -0.21172
C          5.67096        7.39995       -1.03269
C          5.69631        6.42589       -2.01966
C          4.62529        5.53286       -2.16195
C          1.38694        5.04558       -2.79385
C          1.58305        6.26773       -3.46672
C          0.81478        6.61121       -4.58476
C         -0.17858        5.75358       -5.04677
C         -0.41105        4.55099       -4.38999
C          0.35987        4.20123       -3.27886
N          1.36648        4.70891       -0.30517
C          1.72302        4.48745        1.01489
C          0.56944        4.70620        1.72941
N         -0.42662        5.06781        0.87712
N          0.06317        5.08102       -0.35434
C          2.37249        2.05307       -0.82270
H          3.86864       -0.62715       -2.31966
H          4.33124        1.10906       -4.01252
H          3.51047        3.38142       -3.72873
H          2.61232        6.81874        0.25968
H          4.51681        8.27827        0.55081
H          6.50358        8.08880       -0.91953
H          6.54562        6.36292       -2.69643
H          4.70949        4.83310       -2.98227
H          2.32812        6.98787       -3.13761
H          0.98685        7.55970       -5.08774
H         -0.78216        6.03009       -5.90698
H         -1.20226        3.88791       -4.73039
H          0.13081        3.26311       -2.77495
H          2.72122        4.19891        1.30462
H          0.40763        4.62666        2.79283
H          1.75912        2.22955        0.05771
