20

S          2.03136       -1.14052       -0.98267
C          3.39557       -0.34360       -0.77564
N          4.41273        0.23204       -0.67599
C          4.72224        0.78698        0.65693
C          4.26037        2.24876        0.77200
C          2.80793        2.52113        1.10560
C          2.31567        3.82167        0.90267
C          0.98426        4.13982        1.18003
C          0.12103        3.16145        1.66297
C          0.59958        1.87723        1.90182
C          1.93852        1.56697        1.64892
H          4.36585        0.15674        1.48111
H          5.81702        0.78314        0.74007
H          4.86247        2.73698        1.54861
H          4.49177        2.75186       -0.17737
H          2.97272        4.60178        0.52251
H          0.62115        5.15044        1.01357
H         -0.92049        3.39971        1.85988
H         -0.06927        1.11077        2.28545
H          2.26915        0.55921        1.87888
