23

Cl        -2.08994       -0.10810       -0.02443
C         -0.37195       -0.02641       -0.04676
C          0.37896       -1.12738        0.36166
C          1.77367       -1.05823        0.34020
C          2.41591        0.10965       -0.07935
O          3.79338        0.05718       -0.09296
C          4.48365        1.24439       -0.00179
C          4.47259        1.94758        1.20574
C          5.20555        3.12587        1.32260
C          5.96199        3.59327        0.24198
Cl         6.83667        5.06805        0.47743
C          5.99742        2.87831       -0.96741
Cl         6.94558        3.46376       -2.30059
C          5.25845        1.68919       -1.08442
Cl         5.26492        0.75669       -2.54866
C          1.65698        1.20530       -0.50523
C          0.26067        1.13684       -0.48091
H         -0.11194       -2.03930        0.68943
H          2.36083       -1.92059        0.64832
H          3.89810        1.57796        2.05215
H          5.18903        3.67558        2.26180
H          2.12621        2.11204       -0.87355
H         -0.32595        1.99053       -0.81188
