45

C          3.78285        0.11402       -0.70676
C          3.62346       -1.10438       -0.06238
C          2.35221       -1.51926        0.35395
C          1.20268       -0.73091        0.14719
C          1.38688        0.48633       -0.54886
C          2.66662        0.90623       -0.95130
S          0.02957        1.58230       -0.93309
C         -1.33975        0.44186       -0.86370
C         -2.52480        0.83825       -1.50553
C         -3.63465        0.00024       -1.52824
C         -3.55548       -1.25073       -0.93338
C         -2.38148       -1.64302       -0.28159
C         -1.26380       -0.79114       -0.18042
N         -0.09511       -1.16495        0.53277
C         -0.23799       -2.02461        1.73382
C         -0.75637       -1.36888        3.03976
C         -2.24512       -0.96535        3.07891
N         -2.45333        0.33189        3.76373
C         -1.88839        0.27416        5.12639
C         -0.38851       -0.07131        5.11500
C          0.08965       -0.22488        3.65148
C         -0.22077        1.12121        2.98536
C         -1.73529        1.36892        2.98835
H          4.76655        0.43898       -1.03405
H          4.48431       -1.74736        0.10360
H          2.28699       -2.50941        0.79338
H          2.79573        1.85392       -1.46985
H         -2.58647        1.80852       -1.99367
H         -4.54923        0.31751       -2.02097
H         -4.40699       -1.92527       -0.96857
H         -2.36710       -2.64037        0.14567
H         -0.85476       -2.90131        1.50737
H          0.72028       -2.47295        2.01187
H         -0.67516       -2.19675        3.76420
H         -2.70199       -0.90871        2.09429
H         -2.81687       -1.74053        3.60656
H         -2.04616        1.23702        5.62875
H         -2.43969       -0.46256        5.72337
H         -0.21439       -0.99849        5.67386
H          0.18003        0.71876        5.62003
H          1.16009       -0.45182        3.62307
H          0.17004        1.15626        1.97239
H          0.28251        1.92853        3.53259
H         -2.11840        1.39689        1.96125
H         -1.95166        2.36036        3.40439
