51

C          1.04064       -0.11531       -0.04636
C          0.66826       -0.37540        1.40489
C          1.11669        0.73625        2.35729
C          0.48732        2.11464        2.11461
C         -1.04968        2.15841        2.19889
C         -1.66192        1.65370        3.51737
C         -1.19263        2.36141        4.78204
C         -1.58148        3.54163        1.85012
O         -2.42748        3.73454        0.98656
O         -1.00780        4.49287        2.64843
O         -1.59638        5.77696        2.28627
C         -1.06285        6.77383        3.16691
C         -1.73974        6.61045        4.54157
C          0.45575        6.63582        3.33677
C         -1.47653        8.16353        2.60652
C         -1.07901        8.61276        1.16503
C         -1.57407        7.64021        0.08284
C         -1.75978        9.98021        0.91777
C          0.43503        8.81816        1.00402
H          0.52772        0.76584       -0.44224
H          0.75603       -0.97174       -0.66623
H          2.11982        0.03403       -0.15277
H         -0.41177       -0.53849        1.48301
H          1.14335       -1.31212        1.72103
H          0.91014        0.41903        3.38612
H          2.20714        0.83940        2.28924
H          0.92526        2.81679        2.83486
H          0.80114        2.48789        1.13122
H         -1.43529        1.50805        1.40177
H         -2.75432        1.74411        3.46295
H         -1.45028        0.58366        3.62387
H         -1.57339        3.38404        4.82596
H         -1.57725        1.84148        5.66520
H         -0.10289        2.39030        4.86106
H         -1.46522        5.66134        5.01187
H         -1.45748        7.41667        5.22710
H         -2.83130        6.60036        4.44274
H          0.94846        6.40128        2.39035
H          0.89836        7.53817        3.76994
H          0.70397        5.80278        4.00624
H         -2.57610        8.20177        2.64588
H         -1.12915        8.93273        3.31140
H         -2.63991        7.41829        0.20624
H         -1.43943        8.06449       -0.91898
H         -1.02128        6.69583        0.09911
H         -1.42606       10.72499        1.64930
H         -1.52676       10.36822       -0.08041
H         -2.85018        9.90011        0.99344
H          0.85505        9.37107        1.85091
H          0.97034        7.87088        0.90885
H          0.66086        9.38719        0.09448
