98

C          1.13712       -1.09245       -0.66836
C          0.35711       -0.10251       -1.55164
C         -0.89098        0.30478       -0.79839
C         -0.38151        1.37151        0.19503
C         -1.56676        2.26285        0.59682
C         -2.59223        1.41975        1.35320
C         -3.62048        2.31917        1.97874
C         -2.93394        3.12294        3.04665
C         -3.72051        3.57019        4.05165
C         -4.36337        4.84108        3.54977
O         -5.54306        5.07648        3.70163
C         -3.41467        5.81500        2.92490
C         -2.18189        5.41904        2.55290
C         -1.70206        3.96178        2.62817
C         -0.60705        3.81855        3.70991
C         -1.08227        3.52253        1.28201
C         -0.10769        4.18674        0.61208
C          0.48008        3.62566       -0.67666
C          0.81162        2.11367       -0.51075
C          2.11066        2.05433        0.32836
C          0.92073        1.31202       -1.83963
C          2.17027        1.40311       -2.69209
O          2.32975        2.38730       -3.42614
C          3.20911        0.29456       -2.64828
N          4.36403        0.70690       -1.82806
C          5.25610       -0.45016       -1.57005
C          5.88178       -1.09017       -2.83230
N          6.38335       -0.07249       -3.75204
C          7.71841       -0.12051       -4.08515
C          8.55385        0.90693       -3.73518
C          9.77384        0.97474       -4.35409
N         10.50648        2.14284       -4.13495
C         11.43840        2.58011       -5.16849
C         12.73717        2.85656       -4.42082
C         12.27540        3.19478       -3.01218
C         11.10664        2.24187       -2.80492
N         10.17986        0.01095       -5.19358
C          9.34033       -1.01534       -5.42414
N          9.76169       -2.01477       -6.30892
C          8.67653       -2.61990       -7.09980
C          8.62391       -4.08279       -6.67028
C         10.06230       -4.36008       -6.27620
C         10.45642       -3.06994       -5.56153
N          8.12650       -1.12159       -4.86607
C          5.69035        1.21082       -3.91131
C          5.16606        1.72174       -2.55863
H          1.33386       -2.01042       -1.23355
H          0.57800       -1.40168        0.22161
H          2.09899       -0.71931       -0.32157
H          0.09642       -0.60201       -2.49209
H         -1.38566       -0.53369       -0.29919
H         -1.61811        0.73475       -1.50091
H          0.01038        0.86599        1.08901
H         -2.07920        2.61066       -0.31513
H         -2.10583        0.79504        2.11374
H         -3.09815        0.73849        0.65856
H         -4.42393        1.70507        2.40212
H         -4.06931        2.97590        1.22290
H         -3.25523        3.89262        4.98562
H         -3.77658        6.82765        2.80760
H         -1.49902        6.16127        2.14998
H          0.24045        4.48959        3.52457
H         -0.97646        4.05327        4.71494
H         -0.21449        2.79367        3.74189
H          0.32023        5.11069        0.99137
H          1.38561        4.19076       -0.93401
H         -0.22980        3.80127       -1.49346
H          2.93238        2.56212       -0.19148
H          1.99097        2.55677        1.29461
H          2.44028        1.04157        0.55096
H          0.17444        1.76355       -2.51897
H          2.78250       -0.62599       -2.27010
H          3.44577        0.02786       -3.68256
H          6.06490       -0.11009       -0.90794
H          4.71696       -1.21315       -0.99486
H          5.12912       -1.69714       -3.34791
H          6.67416       -1.77922       -2.51000
H          8.22806        1.70525       -3.08371
H         11.58946        1.87814       -5.99407
H         11.04741        3.51225       -5.59549
H         13.31373        3.66406       -4.87981
H         13.35457        1.95167       -4.40713
H         11.92876        4.23411       -2.96438
H         13.06050        3.05755       -2.26400
H         10.39741        2.64141       -2.07098
H         11.47049        1.26877       -2.45158
H          7.69487       -2.13928       -7.01435
H          8.96207       -2.56115       -8.15708
H          8.26719       -4.74025       -7.46853
H          7.96207       -4.20249       -5.80421
H         10.67849       -4.50463       -7.17161
H         10.16472       -5.24287       -5.63908
H         11.54028       -2.91890       -5.58160
H         10.13244       -3.13150       -4.51298
H          4.87665        1.07822       -4.63234
H          6.31934        1.98468       -4.36798
H          4.59998        2.64696       -2.70139
H          6.01492        2.01244       -1.92555
