15

O          0.62711        0.43860       -0.41972
C          1.82467        0.17767       -0.40687
C          2.92370        1.22572       -0.33538
Br         2.33125        3.00797       -0.54658
C          4.24282        1.00129       -0.12891
C          4.98232       -0.24455        0.11023
Br         6.85691       -0.11718       -0.02208
C          4.43581       -1.42628        0.46795
C          2.99697       -1.57055        0.58319
Br         2.34847       -1.33855        2.33585
C          2.30207       -1.23443       -0.52427
O          2.73299       -1.58747       -1.80262
H          4.88466        1.88434       -0.10898
H          5.04251       -2.29981        0.68727
H          3.07148       -2.49933       -1.75468
