32

C         -3.62415        1.24931       -0.04862
C         -2.92899        2.43918       -0.03925
C         -1.53508        2.41496       -0.02801
C         -0.77966        1.20963       -0.02380
C         -1.49767       -0.01937       -0.03733
C         -2.91856        0.04688       -0.04913
C         -0.78481       -1.26541       -0.03395
C         -1.41835       -2.53585       -0.06537
C         -0.70528       -3.73403       -0.05298
C          0.67788       -3.70827       -0.00534
C          1.35538       -2.48785        0.02292
C          2.75089       -2.48321        0.06949
C          3.45168       -1.28352        0.08900
C          2.77079       -0.06479        0.06065
C          3.50126        1.12498        0.07014
C          2.84498        2.34330        0.03752
C          1.45144        2.37642        0.00304
C          0.65569        1.20035       -0.00129
C          1.34649       -0.03696        0.02129
C          0.63191       -1.26014        0.00360
H         -4.71049        1.24588       -0.05382
H         -3.45946        3.38722       -0.03787
H         -1.04454        3.38376       -0.01741
H         -3.52160       -0.85626       -0.05327
H         -2.49988       -2.62385       -0.10412
H         -1.23409       -4.68299       -0.08000
H          1.22227       -4.64962        0.00638
H          3.31003       -3.41606        0.08963
H          4.53846       -1.31301        0.12418
H          4.58827        1.11272        0.09962
H          3.41205        3.27029        0.03957
H          0.99743        3.36243       -0.02198
