26

N          0.57804        0.19104       -0.15968
C          0.67351       -0.35707       -1.50981
C          1.21076       -1.80449       -1.59958
C          2.38957       -2.06957       -0.64637
C          2.86985       -3.51933       -0.67333
C          1.74508       -4.54371       -0.51461
C          1.29344       -4.71235        0.92255
O          1.41661       -5.72912        1.58870
O          0.70696       -3.62924        1.45966
C          0.57811       -4.26995       -1.46278
C          0.07788       -2.82646       -1.41825
H          0.20127       -0.51184        0.47600
H          1.51623        0.39804        0.18398
H         -0.32323       -0.30736       -1.96379
H          1.31341        0.30550       -2.10270
H          1.58774       -1.93431       -2.62421
H          3.22590       -1.41011       -0.90902
H          2.11934       -1.82247        0.38548
H          3.62667       -3.66187        0.10765
H          3.37207       -3.69760       -1.63298
H          2.16161       -5.52393       -0.78771
H          0.45578       -3.91747        2.36248
H         -0.25536       -4.95037       -1.25147
H          0.90739       -4.48945       -2.48754
H         -0.46160       -2.64240       -0.48378
H         -0.65875       -2.69514       -2.22158
