62

C          1.80737       -1.27195       -0.11999
C          0.65104       -1.31103        0.86853
C          0.70454       -0.12489        1.82009
C         -0.21506        1.00105        1.38869
O         -1.41716        0.99875        1.65737
C          0.32640        2.14372        0.60271
C          0.05918        2.21727       -0.76632
C         -0.63626        1.13077       -1.53618
C          0.52362        3.33863       -1.45862
C          1.09249        4.45027       -0.79883
C          1.53064        5.57577       -1.70577
C          1.20599        4.45409        0.61585
C          1.45166        5.78334        1.37132
C          0.37695        6.18348        2.38163
C          0.62783        5.78129        3.80997
O         -0.34739        5.59112        4.54274
C          2.02639        5.81893        4.37896
C          2.22010        4.74541        5.47339
C          1.66286        5.02506        6.86617
C          0.47611        4.14303        7.23324
N          2.81728        3.63110        5.15705
O          2.93312        2.74839        6.23836
C          3.34470        1.46577        5.75862
C          2.13136        0.58201        5.52868
C          3.14567        5.82709        3.35211
O          4.32808        5.79748        3.71434
C          2.85898        6.07520        1.88162
C          0.95668        3.22073        1.27807
C          1.37498        3.00893        2.69213
H          1.89172       -0.29647       -0.60642
H          1.67299       -2.03268       -0.89363
H          2.75473       -1.47136        0.39228
H         -0.30144       -1.34316        0.32939
H          0.72582       -2.24035        1.44533
H          0.36097       -0.43270        2.81657
H          1.73424        0.21846        1.94358
H         -1.26608        1.56328       -2.32093
H          0.09994        0.47120       -2.00435
H         -1.29933        0.52941       -0.90945
H          0.39980        3.37429       -2.54186
H          2.19985        5.17716       -2.47800
H          0.66064        6.02715       -2.19342
H          2.09732        6.35980       -1.20121
H          1.28868        6.54610        0.60036
H          0.29358        7.27884        2.40035
H         -0.60084        5.79302        2.07413
H          2.10443        6.80063        4.86686
H          2.47032        4.87773        7.59209
H          1.36547        6.07650        6.92942
H          0.71823        3.07759        7.19056
H          0.14367        4.36553        8.25179
H         -0.37287        4.30086        6.56490
H          3.94245        1.55966        4.84391
H          3.98213        1.01495        6.52560
H          1.42720        1.04513        4.83366
H          2.42811       -0.39261        5.12981
H          1.58305        0.42777        6.46325
H          3.60385        5.53868        1.28336
H          3.04901        7.14980        1.74502
H          2.26029        3.60703        2.86562
H          0.56886        3.22130        3.39351
H          1.74266        2.00246        2.87128
