18

C         -0.02721       -1.86640        1.22571
C          0.03091       -1.20106       -0.14967
C          0.10091       -2.26826       -1.24090
O          1.23532       -0.45003       -0.26206
C          1.25796        0.85830        0.01527
O          2.32510        1.45537        0.11080
C         -0.02773        1.57142        0.17025
C         -1.27536        0.80107       -0.01981
O         -2.37260        1.33555        0.09378
O         -1.17654       -0.48379       -0.38097
H         -0.91626       -2.49937        1.32415
H          0.86503       -2.47443        1.41220
H         -0.07699       -1.11532        2.02164
H          0.99964       -2.88624       -1.14332
H         -0.78501       -2.91172       -1.23354
H          0.14425       -1.79098       -2.22766
H         -0.05049        2.00633        1.17406
H         -0.03629        2.36750       -0.58386
