26

N          1.19468       -0.04654        0.03031
C          0.69419        1.17184        0.66532
C          0.96598        2.47643       -0.13117
C          0.39560        2.45043       -1.56214
C         -1.10215        2.53100       -1.63227
O         -1.75349        3.48546       -2.02279
O         -1.71331        1.39114       -1.26606
C          0.58663        3.76307        0.60690
C          1.06689        4.99435        0.12188
C          0.74573        6.19709        0.75756
C         -0.05191        6.18481        1.89618
Cl        -0.44077        7.66144        2.68795
C         -0.53374        4.98081        2.39902
C         -0.22060        3.77824        1.75592
H          0.64426       -0.25740       -0.80160
H          2.15981        0.07735       -0.26975
H         -0.37455        1.03972        0.86272
H          1.17935        1.24500        1.64636
H          2.06101        2.52291       -0.23798
H          0.78612        3.29678       -2.14178
H          0.71980        1.56076       -2.11376
H         -2.66771        1.58974       -1.37786
H          1.69851        5.03066       -0.76385
H          1.12114        7.13531        0.35825
H         -1.15467        4.96758        3.29103
H         -0.62344        2.86299        2.18208
