7

O          1.06032        0.00963        0.02136
C          2.28301       -0.12401        0.01845
C          3.05386       -1.42951       -0.00999
Cl         4.07830       -1.41048       -1.46613
Cl         4.07830       -1.47390        1.44560
Cl         1.96672       -2.82714       -0.04044
H          2.91499        0.78264        0.03819
