26

C          1.62831        1.18497       -0.00048
O          1.63497        1.21390        1.41408
P          0.52544        0.35438        2.22977
S         -1.30668        0.94535        1.93860
O          0.98438       -1.15096        1.86743
C          0.47630       -1.84030        0.74905
O          1.10115        0.49554        3.74057
C          0.41299        0.21479        4.89349
C          0.69053        1.09873        5.94827
C          0.02256        0.99002        7.17228
C         -0.93547       -0.01319        7.34127
N         -1.68315       -0.11738        8.59909
O         -1.34978        0.63041        9.52938
O         -2.60286       -0.94436        8.65432
C         -1.18611       -0.93083        6.31840
C         -0.49520       -0.83210        5.10551
Cl        -0.79707       -2.10771        3.98966
H          1.78552        2.19765       -0.37995
H          0.68469        0.80709       -0.40307
H          2.44382        0.54513       -0.34707
H         -0.50777       -1.47740        0.44930
H          1.17477       -1.74913       -0.08514
H          0.38692       -2.89761        1.01290
H          1.42463        1.89212        5.81221
H          0.25016        1.69574        7.96936
H         -1.90970       -1.73278        6.45639
