32

O          1.92618       -1.85006        0.18961
C          1.52490       -0.69758        0.07451
C          2.49480        0.43642       -0.01396
O          3.84350        0.11636       -0.00869
C          2.00848        1.69138       -0.07778
C          2.88034        2.87394       -0.18913
C          2.90784        3.83137        0.83939
C          3.76281        4.93724        0.76440
C          4.58685        5.08169       -0.34451
O          5.45808        6.12732       -0.46921
C          4.54951        4.14596       -1.37437
O          5.36509        4.29157       -2.45936
C          3.69978        3.05053       -1.31312
O          0.66726        2.01874       -0.02834
C         -0.25607        1.00522       -0.00643
C         -1.59597        1.39957       -0.02435
C         -2.59656        0.43635       -0.02021
O         -3.88962        0.86716       -0.03884
C         -2.28209       -0.91791       -0.00167
C         -0.93888       -1.30765        0.02168
O         -0.64779       -2.64208        0.02951
C          0.08603       -0.34748        0.02704
H          4.37323        0.92909        0.01509
H          2.26694        3.71417        1.71180
H          3.77180        5.65952        1.57453
H          5.38016        6.68688        0.32279
H          5.86463        5.11476       -2.28685
H          3.68727        2.33967       -2.13607
H         -1.85833        2.45392       -0.04552
H         -4.48591        0.09995       -0.04302
H         -3.06983       -1.66360       -0.00546
H         -1.45521       -3.17786        0.01631
