47

C          1.57660       -0.15415        0.10554
C          0.50118       -1.07877       -0.47365
C         -0.94465       -0.52562       -0.37646
C         -1.20462        0.35185        0.85203
C         -2.65763        0.80580        1.02198
C         -3.24063        1.71671       -0.06586
C         -2.29253        2.80485       -0.57222
C         -3.02231        3.83433       -1.44644
C         -2.08367        4.49173       -2.46302
C         -1.73318        3.53933       -3.61893
C         -0.22871        3.50166       -3.88624
C          0.15351        2.47943       -4.96833
C          1.16891        1.44819       -4.45961
C          0.49416        0.28514       -3.72644
C          1.44171       -0.46744       -2.80918
O          2.65431       -0.24079       -2.79248
C          0.84510       -1.54024       -1.90544
H          1.45069       -0.03257        1.18656
H          1.54386        0.83936       -0.35336
H          2.57674       -0.57364       -0.04690
H          0.51402       -1.98498        0.14954
H         -1.19992        0.03211       -1.27913
H         -1.63137       -1.38295       -0.35198
H         -0.56303        1.23912        0.81957
H         -0.91983       -0.20585        1.75259
H         -2.72285        1.34103        1.97804
H         -3.30466       -0.07433        1.12368
H         -4.14910        2.18299        0.33726
H         -3.56171        1.10258       -0.91607
H         -1.48387        2.33407       -1.14010
H         -1.82356        3.32534        0.27140
H         -3.44339        4.60901       -0.79351
H         -3.86611        3.37627       -1.97594
H         -1.18422        4.85268       -1.94951
H         -2.57963        5.37733       -2.87918
H         -2.25624        3.86968       -4.52499
H         -2.08835        2.52343       -3.41082
H          0.29795        3.28867       -2.94840
H          0.09802        4.49833       -4.20867
H          0.61056        3.02459       -5.80324
H         -0.72814        1.97086       -5.37668
H          1.90969        1.94587       -3.82177
H          1.72655        1.04312       -5.31322
H          0.10080       -0.42876       -4.45929
H         -0.33782        0.65632       -3.12617
H          1.59592       -2.34016       -1.84958
H         -0.02449       -1.98613       -2.40142
