15

Cl         0.95250        0.00184       -0.11984
C          2.71314       -0.02362        0.05500
C          3.22184        1.09778        0.94713
C          4.63293        0.63236        1.27347
C          4.51013       -0.88025        1.44632
C          3.21340       -1.28996        0.74204
H          3.15035        0.05992       -0.94661
H          3.21471        2.07052        0.44574
H          2.63186        1.17948        1.86803
H          5.03769        1.12058        2.16499
H          5.30364        0.85503        0.43504
H          4.45505       -1.14259        2.50894
H          5.38003       -1.39587        1.02645
H          2.49890       -1.65920        1.48769
H          3.38284       -2.09799        0.02254
