28

O          1.13570        0.07917       -0.09466
C          0.29359        0.90179       -0.74268
N         -0.69784        1.48369       -0.18017
C         -0.82741        1.37777        1.26684
C         -1.32789        2.72295        1.80496
C         -0.32702        3.89093        1.70709
C         -0.00748        4.34926        0.27507
C          1.33638        3.81270       -0.24378
C          1.36789        3.65696       -1.77448
C          1.76451        2.24990       -2.25774
C          0.65024        1.19913       -2.16930
H          1.85014       -0.24644       -0.66359
H         -1.56207        0.60003        1.50265
H          0.10886        1.12123        1.77560
H         -2.25823        3.00228        1.29440
H         -1.58185        2.58890        2.86394
H          0.59008        3.64906        2.25688
H         -0.78289        4.74041        2.23236
H          0.05056        5.44549        0.26397
H         -0.83631        4.08976       -0.39268
H          2.11822        4.52601        0.04973
H          1.61188        2.87967        0.25538
H          0.41513        3.94553       -2.23282
H          2.11509        4.36093       -2.16344
H          2.05727        2.32920       -3.31229
H          2.65337        1.91035       -1.71216
H         -0.24368        1.54516       -2.70066
H          0.97176        0.26977       -2.65268
