28

C          1.30750       -0.14975       -0.21811
C          0.68427        0.09160        1.14768
C          0.94235        1.49298        1.70141
C          0.39013        2.67401        0.88784
C         -1.15590        2.81880        0.76074
C         -1.89877        2.42295        2.04349
C         -1.42922        4.29388        0.47470
O         -1.76446        5.11156        1.32741
N         -1.21427        4.69126       -0.81755
C         -1.38587        3.87536       -1.89283
O         -1.62103        4.32923       -3.00796
N         -1.40213        2.53543       -1.65534
C         -1.66451        2.00295       -0.42122
O         -2.25675        0.93243       -0.32181
H          0.85246        0.47937       -0.98774
H          1.16360       -1.19422       -0.51497
H          2.38369        0.05053       -0.19896
H         -0.38714       -0.12111        1.10814
H          1.11116       -0.63456        1.85114
H          0.56155        1.54410        2.72854
H          2.02900        1.62898        1.78758
H          0.78027        3.58102        1.37318
H          0.85726        2.66717       -0.10539
H         -1.82358        1.35157        2.25469
H         -1.51401        2.96787        2.91307
H         -2.96819        2.65338        1.96089
H         -1.38314        5.67136       -1.00257
H         -1.72974        1.98383       -2.43814
