30

N          0.74385        0.22097        0.04044
C          0.23822       -0.56207        1.10969
C          0.76472       -0.44860        2.38959
C          0.24855       -1.23037        3.41551
N          0.84432       -1.17839        4.67016
C          0.75689       -2.36787        5.52158
C         -0.33170       -2.23587        6.58219
C         -0.17676       -0.93527        7.36391
C         -0.18012        0.25294        6.40736
C          0.91871        0.11754        5.35193
N         -0.76529       -2.09249        3.19195
C         -1.30043       -2.20789        1.94836
N         -2.36014       -3.09953        1.74431
N         -0.82156       -1.44044        0.88052
O         -1.33629       -1.52964       -0.30186
H          0.21489       -0.06897       -0.79427
H          1.74134        0.08396       -0.09476
H          1.59830        0.22009        2.57140
H          1.72592       -2.48772        6.02285
H          0.61244       -3.28685        4.94011
H         -0.27870       -3.08741        7.27018
H         -1.32118       -2.26254        6.11079
H         -0.98912       -0.83590        8.09194
H          0.76331       -0.95188        7.92990
H         -1.15967        0.32049        5.91798
H         -0.03696        1.18132        6.97177
H          0.84868        0.96460        4.65945
H          1.89939        0.19550        5.83645
H         -2.82243       -2.86936        0.86443
H         -2.93516       -3.18511        2.57103
