30

C          1.07111        0.28980        0.00170
O          0.22578       -0.06386        1.08748
C          0.75238       -0.78535        2.15175
C          2.01852       -1.24063        2.19558
C          2.69990       -1.99235        3.26093
C          3.77058       -2.82057        2.86798
C          4.56536       -3.47482        3.80908
C          4.31401       -3.29571        5.16169
C          3.26085       -2.47417        5.56516
C          2.43351       -1.82269        4.62764
N          1.36224       -1.04517        5.12286
C          0.04667       -1.04154        4.59800
C         -1.01264       -1.11859        5.53077
C         -2.34443       -1.18807        5.12449
C         -2.64586       -1.17950        3.77250
C         -1.61408       -1.08338        2.83771
C         -0.25569       -1.00344        3.22362
H          0.47934        0.87717       -0.70671
H          1.42977       -0.60210       -0.52193
H          1.90542        0.91322        0.33895
H          2.67608       -1.04423        1.35504
H          3.99902       -2.95800        1.81287
H          5.38353       -4.11143        3.48338
H          4.93125       -3.79471        5.90376
H          3.07767       -2.35730        6.63040
H          1.36305       -1.00357        6.13518
H         -0.80077       -1.14480        6.59688
H         -3.13854       -1.25540        5.86262
H         -3.67807       -1.23508        3.43829
H         -1.88107       -1.06003        1.78241
