17

C          1.16503        0.05645       -0.08384
C          0.48379        0.82738       -1.21368
Br         1.26589        0.18986       -2.91110
C         -1.05876        0.78991       -1.20227
C         -1.62196        1.33385        0.11915
Br        -1.73624        2.01712       -2.62305
C         -1.66803       -0.58197       -1.47370
O         -1.08022       -1.65120       -1.52078
O         -3.01472       -0.58039       -1.58398
H          0.93292       -1.01244       -0.11093
H          0.87105        0.44316        0.89642
H          2.25537        0.15110       -0.14776
H          0.82594        1.86879       -1.16156
H         -1.18395        2.30678        0.37028
H         -2.70979        1.46814        0.07899
H         -1.42490        0.64671        0.94923
H         -3.24589       -1.51950       -1.74725
