20

C          1.05669        0.20194        0.09896
N          0.49066        1.05122       -0.94439
C         -0.31100        0.37128       -1.94073
C          0.79693        2.39188       -0.84007
O          1.50958        2.76207        0.10555
N          0.34738        3.33883       -1.73836
C         -0.48405        3.24386       -2.92771
C          0.78503        4.70125       -1.44782
H          0.78308       -0.84830       -0.03193
H          0.69254        0.53968        1.07497
H          2.14846        0.28469        0.07755
H         -1.33118        0.76185       -1.90852
H          0.14969        0.50249       -2.92303
H         -0.36628       -0.70401       -1.74653
H         -1.36369        3.87980       -2.78192
H          0.09084        3.62506       -3.77838
H         -0.83485        2.25770       -3.18765
H          0.42116        4.99652       -0.45811
H          1.87931        4.74114       -1.45705
H          0.40063        5.40817       -2.18964
