37

C          1.42479        0.16944        0.21232
C          0.61301       -0.96949        0.81176
N          1.01494       -1.23496        2.20114
P          0.42160       -2.65284        3.09889
S         -1.51299       -2.16066        2.81481
O          1.03161       -3.64128        1.90404
C          2.42389       -3.57646        1.59100
O         -0.15507       -4.03090        3.97143
C          0.57071       -5.12825        4.43867
C          2.04308       -5.20685        4.18930
C         -0.00162       -6.14595        5.10405
C         -1.39189       -6.33522        5.54438
O         -1.74024       -7.38785        6.05590
O         -2.12826       -5.21941        5.39210
C         -3.47136       -5.18418        5.90960
C         -4.37862       -6.21589        5.24831
C         -3.47244       -5.25980        7.43312
H          1.24575        1.10570        0.75069
H          1.13031        0.32246       -0.83197
H          2.49734       -0.04679        0.23012
H         -0.43823       -0.67647        0.74857
H          0.73948       -1.85451        0.18213
H          2.01203       -1.11501        2.31294
H          2.58077       -2.99254        0.68067
H          2.99903       -3.12057        2.40410
H          2.80932       -4.58042        1.40338
H          2.54479       -5.87505        4.89898
H          2.22897       -5.62575        3.19784
H          2.51951       -4.23105        4.29784
H          0.60923       -6.99862        5.39297
H         -3.85092       -4.19387        5.63225
H         -4.10392       -7.24131        5.51185
H         -5.42012       -6.06539        5.54764
H         -4.31071       -6.13881        4.15798
H         -2.79686       -4.50409        7.84920
H         -4.47603       -5.09210        7.83402
H         -3.12043       -6.22968        7.79754
