11

C          1.11604        0.02265       -0.04934
C          0.55812        1.37901        0.37986
Cl         1.21928        2.61282       -0.75804
C         -0.98020        1.42617        0.39587
Cl        -1.67671        0.16425        1.46114
Cl        -1.59412        3.00914        0.97124
H          0.72655       -0.27730       -1.02845
H          0.86357       -0.76229        0.66999
H          2.20968        0.05113       -0.11493
H          0.95772        1.63143        1.36858
H         -1.39154        1.26196       -0.60495
