25

O          1.02952       -0.10405        0.07488
C          2.24315       -0.02899       -0.10775
N          3.07595       -0.87274        0.56976
C          4.46212       -0.83723        0.80702
C          5.05207       -2.00338        1.30985
C          6.42074       -2.04805        1.58708
C          7.20932       -0.91921        1.38288
C          6.62668        0.25507        0.91251
C          5.25731        0.29842        0.63149
N          2.82170        0.81019       -1.01985
C          2.05771        1.71282       -1.82441
C          2.22274        3.19760       -1.65239
C          2.72441        2.52921       -2.89829
H          2.55614       -1.61278        1.02579
H          4.45741       -2.89827        1.47676
H          6.86885       -2.96329        1.96554
H          8.27309       -0.94934        1.60454
H          7.23450        1.14698        0.78071
H          4.83415        1.25169        0.33003
H          3.68419        0.45916       -1.41485
H          1.05303        1.35531       -2.04535
H          1.33228        3.81155       -1.72224
H          2.95106        3.55274       -0.93296
H          3.79631        2.44565       -3.02992
H          2.17518        2.69465       -3.81826
