34

C          0.68978        0.77595       -0.28909
C          0.26656        0.22302        1.03051
C         -0.47629        0.86215        1.94222
C         -0.94151        0.37057        3.27856
O         -1.84011        1.03060        3.81454
C         -0.38667       -0.88443        3.99953
C         -1.40675       -2.03378        3.93637
C         -1.27909       -2.83343        2.64210
C          0.14349       -3.41062        2.42457
C          0.34224       -3.65731        0.91497
C          0.28815       -4.76086        3.14858
C          1.23118       -2.48462        2.95100
C          1.00865       -1.34608        3.63895
C          2.13617       -0.47682        4.12644
H          0.31353        1.78731       -0.46097
H          0.32567        0.12711       -1.09230
H          1.78322        0.79690       -0.34223
H          0.61453       -0.78163        1.20059
H         -0.83704        1.86571        1.72557
H         -0.33956       -0.58005        5.05697
H         -2.43039       -1.65152        4.02907
H         -1.24890       -2.70515        4.79089
H         -1.55646       -2.17597        1.80820
H         -2.02131       -3.64174        2.64191
H          1.35936       -3.99768        0.69058
H         -0.35490       -4.41875        0.54674
H          0.16489       -2.75233        0.32452
H         -0.46935       -5.47526        2.80611
H          1.26990       -5.21027        2.95384
H          0.18180       -4.65443        4.23338
H          2.25825       -2.78354        2.74197
H          1.99528        0.55920        3.80238
H          2.17965       -0.49188        5.22033
H          3.10666       -0.81035        3.74525
