38

C          0.94834       -0.06443       -0.23974
C          0.50618       -1.51482       -0.25236
N          0.97909       -2.45808        0.79222
C          0.63993       -3.80522        0.67125
C          0.87633       -4.78793        1.55523
C          0.43021       -6.18310        1.32487
O          0.30893       -7.02973        2.19521
O          0.16935       -6.39382        0.00669
C         -0.20079       -7.73684       -0.30735
O          0.92040       -8.62429       -0.40407
C          1.94388       -8.43398       -1.26061
C          1.88908       -7.28191       -2.22130
O          2.91958       -9.18071       -1.24157
C          1.57215       -4.38869        2.79945
O          1.85175       -5.18939        3.68464
C          1.95296       -2.97030        2.95725
C          2.63140       -2.57670        4.11648
C          2.99327       -1.24891        4.27373
C          2.66453       -0.36136        3.26326
C          3.00768        1.09315        3.37688
N          1.99835       -0.74190        2.14236
C          1.64052       -2.03276        1.96482
H          0.53557        0.47687        0.61748
H          0.56896        0.44154       -1.13495
H          2.03788        0.03379       -0.25213
H         -0.59166       -1.52906       -0.24432
H          0.80832       -1.92665       -1.22513
H          0.11470       -4.01156       -0.25905
H         -0.89753       -8.14099        0.43749
H         -0.75111       -7.74178       -1.25501
H          2.50620       -6.46346       -1.84245
H          2.28137       -7.62183       -3.18507
H          0.88014       -6.92180       -2.41766
H          2.87621       -3.30310        4.88825
H          3.52061       -0.92522        5.16482
H          3.47236        1.44143        2.44908
H          2.09856        1.67398        3.55899
H          3.70994        1.27967        4.19559
