15

C          2.05763        1.49715       -0.00188
N          0.87670        0.68218        0.00596
C         -0.45467        1.26332        0.01551
C         -1.31628       -0.00054        0.01900
O         -2.53586       -0.05434        0.02547
N         -0.46578       -1.07676        0.01349
C          0.81992       -0.67201        0.00563
N          1.78439       -1.50793       -0.00078
H          2.07266        2.13662       -0.89019
H          2.08253        2.13928        0.88428
H          2.97235        0.89585       -0.00603
H         -0.64867        1.84583       -0.88858
H         -0.63677        1.84233        0.92433
H         -0.79485       -2.02560        0.01450
H          1.42631       -2.46379        0.00124
