26

C          0.87255        0.46897       -0.46157
C          0.39196       -0.62611       -1.39695
C          1.00831       -2.01187       -1.16838
C          0.54683       -2.76844        0.09619
C          1.23734       -2.26728        1.37600
C          0.87665       -3.11895        2.59158
C          1.13621       -4.59209        2.31227
C          0.44956       -5.02600        1.02305
N          0.86831       -4.19544       -0.10490
H          0.33869        0.43813        0.49133
H          0.67164        1.45143       -0.90192
H          1.94802        0.39711       -0.27370
H         -0.70177       -0.68855       -1.36066
H          0.64900       -0.32126       -2.41970
H          0.73105       -2.60665       -2.05063
H          2.10340       -1.93854       -1.18926
H         -0.54114       -2.66211        0.19601
H          0.95096       -1.23831        1.59890
H          2.32696       -2.27327        1.24230
H          1.45674       -2.79353        3.46217
H         -0.18244       -2.97316        2.83770
H          2.21704       -4.76510        2.23281
H          0.77558       -5.19888        3.15025
H          0.71285       -6.06813        0.81131
H         -0.64045       -4.98766        1.13753
H          0.40868       -4.53094       -0.95097
