15

O          1.21046       -0.68530       -1.04605
S          0.58534        0.04724        0.03654
O          1.35449        0.74287        1.04604
C         -0.58626       -1.02821        0.84571
C         -1.90945       -0.75720        0.14245
C         -1.96513        0.75465       -0.06788
C         -0.62030        1.16872       -0.65936
H         -0.26228       -2.06678        0.75800
H         -0.63488       -0.73642        1.89922
H         -2.75779       -1.11838        0.73112
H         -1.92947       -1.26667       -0.82854
H         -2.11541        1.25318        0.89725
H         -2.79263        1.04373       -0.72303
H         -0.35756        2.19675       -0.39995
H         -0.61020        1.04252       -1.74543
