29

C          0.92010        0.02725        0.07018
C          0.48731        0.59818        1.43014
C          1.03991        2.02473        1.56121
C         -1.04368        0.60855        1.51292
C          1.03310       -0.29492        2.55057
O          1.50012       -1.41484        2.38399
O          0.87036        0.33888        3.78338
C          1.33203       -0.34865        4.91438
C          0.42159       -0.54761        5.95261
C          0.84296       -1.17678        7.12566
C          2.17962       -1.58688        7.24793
N          2.62712       -2.24548        8.48213
O          1.78806       -2.42426        9.37669
O          3.81814       -2.57904        8.55925
C          3.09522       -1.36536        6.20800
C          2.66838       -0.73305        5.03831
H          0.55149        0.64503       -0.75641
H          0.53575       -0.98868       -0.07734
H          2.01245       -0.02230       -0.00811
H          0.72773        2.64994        0.71715
H          0.68883        2.51412        2.47667
H          2.13549        2.02076        1.59313
H         -1.44934       -0.40741        1.44323
H         -1.39095        1.03055        2.46283
H         -1.48119        1.20346        0.70358
H         -0.60879       -0.21788        5.85003
H          0.12658       -1.33614        7.92900
H          4.13471       -1.67575        6.29279
H          3.37472       -0.55469        4.23185
