12

O          1.04074        0.07944       -0.29904
C          2.24692        0.08486       -0.07455
C          3.00321        1.35727        0.06229
Cl         2.10526        2.80824       -0.24324
C          4.29571        1.36319        0.40363
Cl         5.21496        2.82248        0.57801
C          5.03182        0.09762        0.66092
O          6.19156        0.10304        1.06125
C          4.30654       -1.17481        0.40664
Cl         5.23821       -2.62578        0.58446
C          3.01404       -1.18073        0.06530
Cl         2.12852       -2.64002       -0.23678
