18

C          2.60434        1.12098        0.00177
C          1.26625        0.42520       -0.00118
C          1.29532       -0.98490        0.00692
C          0.12276       -1.73485        0.00584
C         -1.10910       -1.09312       -0.00340
C         -1.17449        0.30469       -0.01205
O         -2.42234        0.86382       -0.02267
C          0.00470        1.08307       -0.01134
N         -0.08984        2.56837       -0.02083
O         -1.20378        3.10806       -0.00875
O          0.96164        3.22407       -0.03969
H          2.73043        1.72132       -0.90456
H          2.71747        1.73842        0.89827
H          3.43167        0.40197        0.01440
H          2.24741       -1.51525        0.01428
H          0.17275       -2.82141        0.01198
H         -2.01176       -1.69851       -0.00471
H         -3.11010        0.17886       -0.00869
