25

C          0.63058        0.15146       -0.16733
C          0.70848       -1.32664       -0.51546
O          1.13876       -2.11002        0.60411
C          2.48547       -2.34654        0.61566
C          3.38924       -1.34126        0.94275
C          4.74923       -1.63401        1.04494
C          5.21539       -2.94306        0.85729
C          6.57693       -3.25418        0.99374
C          7.02736       -4.56501        0.83733
C          6.12284       -5.57910        0.53554
C          4.76540       -5.28469        0.38880
C          4.29287       -3.97140        0.54918
C          2.92752       -3.65639        0.43181
H          0.30269        0.30168        0.86615
H         -0.05437        0.67348       -0.84171
H          1.61049        0.62652       -0.27465
H         -0.30278       -1.67555       -0.75435
H          1.32206       -1.50059       -1.40852
H          3.04758       -0.33511        1.15738
H          5.43981       -0.83428        1.30233
H          7.29706       -2.47560        1.23582
H          8.08309       -4.79344        0.95732
H          6.47277       -6.60150        0.41937
H          4.07467       -6.09270        0.15766
H          2.19959       -4.43461        0.21669
