29

C          0.95853        0.19393       -0.00847
C          0.46957        1.07639        1.10656
O         -0.35116        1.97016        0.91283
N          0.98022        0.88356        2.35492
C          1.72959       -0.27601        2.85556
C          3.00972        0.15294        3.59405
C          2.78297        1.02611        4.81014
C          2.86629        2.42294        4.71004
C          2.63831        3.23036        5.82742
C          2.31791        2.63988        7.04496
O          2.08119        3.38856        8.15932
C          2.23114        1.25921        7.16413
C          2.47128        0.45226        6.05175
C          0.87478       -1.17414        3.75478
O          1.21559       -2.26022        4.20168
O         -0.31179       -0.63855        4.10677
H          0.57849        0.57034       -0.96294
H          0.59062       -0.82548        0.13411
H          2.05099        0.20361       -0.04950
H          0.50897        1.44297        3.06012
H          2.01302       -0.90035        2.00277
H          3.57679       -0.73423        3.90520
H          3.66309        0.68953        2.89289
H          3.10992        2.89336        3.75917
H          2.71322        4.30859        5.72732
H          2.18743        4.32631        7.93037
H          1.98051        0.81122        8.12150
H          2.41199       -0.62830        6.16700
H         -0.70264       -1.28151        4.73478
