31

O          3.52970       -0.48773       -0.32745
C          2.21778       -0.11296       -0.18379
C          1.91212        1.23164        0.00912
C          0.57974        1.62177        0.11900
C         -0.45739        0.68127        0.05093
C         -1.79569        1.09447        0.14914
C         -2.83896        0.17277        0.08571
C         -2.55673       -1.17896       -0.07365
C         -1.23096       -1.60549       -0.18150
C         -0.15248       -0.69526       -0.12830
C          1.20677       -1.09075       -0.25228
N          1.54350       -2.43252       -0.54898
N          1.97262       -3.02352        0.46617
C          2.43900       -4.32079        0.15726
C          3.54264       -4.81578        0.86352
C          4.04192       -6.09818        0.61435
C          3.43699       -6.90618       -0.34618
C          2.33393       -6.43443       -1.05396
C          1.83641       -5.15311       -0.79924
H          4.10071        0.28554       -0.20159
H          2.69109        1.98538        0.05802
H          0.35364        2.67872        0.25339
H         -2.03876        2.14865        0.27365
H         -3.86924        0.50994        0.16228
H         -3.36591       -1.90310       -0.11535
H         -1.03802       -2.67076       -0.30240
H          4.02222       -4.18880        1.61104
H          4.90260       -6.46312        1.16890
H          3.82441       -7.90250       -0.54320
H          1.85897       -7.05995       -1.80505
H          0.97350       -4.79944       -1.35729
