20

C          0.93261       -0.01690        0.00253
C          0.52389       -0.41070        1.39239
C          0.63071       -1.74310        1.76099
N          0.31799       -2.18944        2.98642
N         -0.11853       -1.30019        3.92714
C         -0.23472        0.01504        3.65481
C         -0.67212        0.92361        4.63018
O         -0.98582        0.45401        5.88525
C         -0.79998        2.29016        4.37616
C         -0.47788        2.77899        3.11862
C         -0.03407        1.90137        2.12962
C          0.08958        0.51182        2.37210
H          0.27017        0.74812       -0.41261
H          0.87768       -0.87237       -0.68022
H          1.96205        0.35466        0.00606
H          0.97727       -2.50850        1.07525
H         -1.22753        1.19554        6.46092
H         -1.14562        2.97670        5.14258
H         -0.57038        3.84082        2.90383
H          0.21499        2.32194        1.15791
