24

C          1.07700       -0.00230       -0.09783
C          0.56988        0.09321        1.33741
C          0.95975        1.40241        2.06190
C          0.39160        2.56913        1.26085
O         -0.74097        3.02330        1.30034
O          1.28996        3.08797        0.39443
C          0.56360        1.46068        3.54440
C          0.54006        2.69601        4.22024
C          0.21571        2.77664        5.57816
C         -0.06611        1.62154        6.29882
C         -0.01988        0.38681        5.66175
C          0.29472        0.30696        4.30108
H          0.58861        0.72717       -0.75032
H          0.86293       -0.99718       -0.50227
H          2.15920        0.15473       -0.14277
H         -0.52100       -0.02749        1.33766
H          0.98986       -0.76761        1.86888
H          2.05528        1.49154        2.05209
H          0.78610        3.78511       -0.07618
H          0.76460        3.62299        3.69605
H          0.18427        3.74480        6.07124
H         -0.31675        1.68234        7.35418
H         -0.22723       -0.52116        6.22252
H          0.32492       -0.68437        3.85919
