15

O          1.10039        0.04497       -0.13397
C          0.46228        1.23787       -0.56956
C          0.89790        2.44661        0.21611
C          1.62957        2.35392        1.40337
C          1.97153        3.51977        2.07247
N          1.62910        4.75608        1.65261
C          0.90587        4.82804        0.51695
C          0.52235        3.72090       -0.22527
H          2.04972        0.15577       -0.31121
H          0.69875        1.37218       -1.63079
H         -0.61863        1.10137       -0.46566
H          1.92550        1.39457        1.81588
H          2.54376        3.48669        2.99506
H          0.62823        5.83206        0.20825
H         -0.06611        3.85513       -1.12702
