59

C          1.34741       -0.33345       -0.00094
C          0.43486       -1.38053       -0.66746
C         -0.40190       -0.67932       -1.74987
C          1.26597       -2.50006       -1.31178
N          1.86934       -3.34591       -0.30878
C          1.21257       -3.74908        0.81375
N          1.51880       -4.87292        1.38750
N          0.75570       -5.13851        2.53446
C          0.75427       -6.39103        2.89393
C          1.47285       -7.48819        2.15270
C          1.19233       -8.79973        2.21087
C          1.89903       -9.83190        1.43068
C          1.22926      -11.02600        1.13262
C          1.86212      -12.04231        0.40882
C          3.18524      -11.88971       -0.02858
C          3.85501      -12.99242       -0.81078
F          3.98493      -14.13846       -0.08642
F          3.15822      -13.33563       -1.92991
F          5.10996      -12.67634       -1.23669
C          3.86356      -10.70505        0.28566
C          3.22895       -9.69146        1.01272
C          0.04936       -6.80766        4.14877
C         -0.77213       -5.96819        4.79993
C         -1.48041       -6.31045        6.04270
C         -2.73732       -5.74159        6.28190
C         -3.44031       -6.02826        7.45688
C         -2.89550       -6.88482        8.42430
C         -3.66495       -7.18697        9.68666
F         -3.82894       -6.08723       10.47270
F         -4.91903       -7.65542        9.43364
F         -3.07115       -8.12522       10.47639
C         -1.62618       -7.43339        8.19768
C         -0.92469       -7.14378        7.02216
N          0.24919       -2.89102        1.25280
C         -0.49679       -2.03176        0.36680
H          1.95958       -0.76533        0.79764
H          0.75579        0.47710        0.43985
H          2.02966        0.11429       -0.73263
H         -1.02673        0.10996       -1.31751
H          0.24099       -0.22095       -2.50984
H         -1.06593       -1.38606       -2.26050
H          0.63383       -3.12552       -1.95473
H          2.05189       -2.08144       -1.95095
H          2.49691       -4.06044       -0.65827
H          2.24154       -7.12057        1.47994
H          0.37274       -9.16985        2.81972
H          0.19975      -11.17632        1.45239
H          1.31490      -12.95718        0.18492
H          4.89564      -10.56071       -0.03156
H          3.79718       -8.79452        1.24934
H          0.24645       -7.80060        4.52927
H         -0.95978       -4.97099        4.40755
H         -3.18735       -5.07380        5.54967
H         -4.41975       -5.57846        7.61477
H         -1.16980       -8.08865        8.93862
H          0.06735       -7.57036        6.89211
H         -0.26523       -3.32248        2.01567
H         -1.01803       -1.26801        0.95513
H         -1.26821       -2.63051       -0.13388
