32

C          0.98217        0.09736        0.89352
C          1.06595        1.50954        0.34762
O          2.36689        1.76884       -0.14914
P          2.70449        1.68870       -1.73060
S          1.91067        0.25590       -2.78088
O          2.40855        3.19383       -2.24788
C          1.15751        3.84122       -2.15696
C          0.14371        3.30739       -3.14910
O          4.32917        1.76708       -1.70454
C          5.11079        0.70601       -1.35169
C          5.39934       -0.27968       -2.29189
C          6.24268       -1.33720       -1.94738
C          6.86485       -1.37760       -0.70048
N          7.61782       -2.49698       -0.32677
C          6.54397       -0.39345        0.24352
C          5.68608        0.66167       -0.08966
H          0.96209       -0.63415        0.08071
H          0.07172       -0.03504        1.48541
H          1.85209       -0.13817        1.51414
H          0.30043        1.67437       -0.41548
H          0.88107        2.22194        1.15820
H          0.77655        3.81007       -1.13378
H          1.34045        4.89603       -2.38897
H         -0.26909        2.35393       -2.80889
H         -0.69420        4.00229       -3.25687
H          0.59772        3.14306       -4.13147
H          4.97079       -0.24068       -3.28735
H          6.41758       -2.12541       -2.67659
H          8.28853       -2.31403        0.41119
H          8.03593       -2.98608       -1.11358
H          6.96724       -0.43845        1.24184
H          5.47481        1.43740        0.64264
