56

C         -0.08311        0.05624        2.38546
N          0.22832       -1.33562        2.11434
C         -1.00070       -2.09938        1.90850
C          1.30168       -1.67958        1.16020
C          2.67324       -1.63798        1.86332
O          2.96802       -2.48037        2.72233
C          3.63105       -0.48942        1.58903
C          3.52016        0.57191        2.66261
N          3.45272        0.11984        3.95169
O          3.50609        1.77322        2.42287
C          3.51438        0.09823        0.18060
O          4.51088        0.37562       -0.48165
C          2.09362        0.32989       -0.29403
O          1.54458        1.25552        0.63191
C          1.72935        0.89794       -1.66428
O          2.50051        0.96360       -2.61227
C          0.22723        1.19515       -1.77189
C         -0.27018        2.04851       -2.90184
O          0.40206        2.89861       -3.47689
C         -1.73614        2.02673       -3.13952
C         -2.38704        3.21413       -3.50693
O         -1.73314        4.40230       -3.67945
C         -3.76107        3.23399       -3.69483
C         -4.48540        2.05469       -3.56244
C         -3.84152        0.85980       -3.21712
Cl        -4.85355       -0.54099       -3.15528
C         -2.45586        0.82596       -2.95465
C         -1.66638       -0.42516       -2.58935
C         -1.10970       -1.04956       -3.87941
O         -2.44374       -1.44582       -1.95294
C         -0.58680       -0.08950       -1.51628
C          0.30647       -1.31259       -1.22575
C          1.46840       -1.07845       -0.24993
H         -0.80575        0.13769        3.20658
H         -0.53317        0.56232        1.52738
H          0.79106        0.60479        2.73895
H         -1.48055       -1.86960        0.95391
H         -0.80346       -3.17488        1.96018
H         -1.72804       -1.88738        2.70162
H          1.18788       -2.76013        0.97297
H          4.64332       -0.91208        1.65454
H          3.30669        0.79271        4.69331
H          3.31509       -0.86433        4.17741
H          2.15914        2.02110        0.71789
H          0.01690        1.86857       -0.92613
H         -0.76659        4.22181       -3.72588
H         -4.26433        4.15975       -3.96180
H         -5.55878        2.06910       -3.74349
H         -0.31610       -0.44389       -4.32832
H         -0.72480       -2.06107       -3.70836
H         -1.90210       -1.16661       -4.62932
H         -3.29112       -1.07233       -1.65478
H         -1.13967        0.09198       -0.58268
H         -0.28446       -2.17992       -0.91510
H          0.77047       -1.61933       -2.17407
H          2.24281       -1.73260       -0.69655
