50

C          0.05319       -1.29160        0.02047
C         -0.38850       -1.32576        1.49142
C         -1.11030        0.00869        1.78672
C         -1.39003       -2.47014        1.69607
N          0.69929       -1.42281        2.47811
C          1.84279       -2.31240        2.21224
C          2.88222       -2.23018        3.38105
O          2.80160       -3.45145        4.13885
C          4.34994       -2.00443        2.94809
O          4.63328       -0.66562        2.48299
C          4.57398       -0.59045        1.11488
C          5.41709       -1.41931        0.35529
C          5.16357       -1.61614       -0.99861
C          4.10316       -0.95464       -1.59168
C          3.37813        0.00083       -0.86765
C          3.63130        0.23822        0.50079
C          2.91394        1.40352        1.16833
C          2.34724        1.27141        2.59261
C          2.96050        2.37913        3.43294
C          3.27538        3.45179        2.41296
C          3.82438        2.64422        1.24462
H         -0.81713       -1.21716       -0.64384
H          0.60376       -2.19064       -0.27248
H          0.67763       -0.41857       -0.18481
H         -2.06652        0.07399        1.25562
H         -1.31948        0.13241        2.85597
H         -0.51243        0.86848        1.46369
H         -0.94902       -3.44001        1.44588
H         -1.74460       -2.51051        2.73227
H         -2.27258       -2.33223        1.05921
H          0.31537       -1.64744        3.39627
H          1.48242       -3.34250        2.11232
H          2.31325       -2.03836        1.26902
H          2.60508       -1.43388        4.07897
H          3.31845       -3.31155        4.95184
H          4.99637       -2.15037        3.82290
H          4.65402       -2.79658        2.25206
H          6.23525       -1.95019        0.82908
H          5.77486       -2.31154       -1.56885
H          3.84802       -1.15570       -2.63051
H          2.59041        0.54582       -1.37882
H          2.05318        1.66237        0.53485
H          1.26446        1.42578        2.56756
H          2.51910        0.31823        3.06533
H          3.87781        2.01919        3.91325
H          2.27913        2.72346        4.21702
H          3.98968        4.18622        2.79241
H          2.35773        3.97553        2.11921
H          4.86354        2.36205        1.45514
H          3.81587        3.21664        0.31212
