55

C          0.72019       -0.06033       -0.26595
N          0.08605        1.25114       -0.17241
C         -0.46145        1.78646       -1.44113
C         -1.88149        2.27741       -1.27662
C         -2.16606        3.63127       -1.28611
N         -3.36379        4.13044       -0.89989
C         -4.29691        3.26654       -0.48141
N         -5.42157        3.77216        0.01228
C         -6.33049        2.91926        0.46911
N         -7.46523        3.44829        1.04294
N         -6.23793        1.59475        0.39907
C         -5.09486        1.10416       -0.10155
N         -5.03121       -0.29695       -0.20951
C         -4.04138        1.89203       -0.54892
N         -2.84455        1.38006       -0.96129
C          0.61422        2.16622        0.74141
C         -0.20739        3.11230        1.36851
C          0.29591        4.04582        2.28565
C          1.64639        4.03960        2.64531
C          2.08826        5.05558        3.64500
O          1.26408        5.48838        4.45184
N          3.35540        5.58618        3.69391
C          4.60056        5.16362        3.05100
C          5.46932        6.34833        2.60405
C          5.95192        7.30154        3.69151
C          7.09785        6.73531        4.48009
O          8.20752        6.47857        4.05381
O          6.77473        6.49039        5.76200
C          5.36879        4.16811        3.93405
O          6.35531        3.53248        3.59963
O          4.88308        4.05543        5.18760
C          2.45126        3.03717        2.10675
C          1.95395        2.14798        1.14102
H          0.09479       -0.74862       -0.84463
H          0.83905       -0.50536        0.72891
H          1.69783       -0.00359       -0.75656
H          0.19178        2.56920       -1.84797
H         -0.48869        0.99530       -2.20246
H         -1.41337        4.37449       -1.52973
H         -8.23756        2.80179        0.97249
H         -7.61233        4.39721        0.72812
H         -4.11633       -0.63853        0.07295
H         -5.81027       -0.70611        0.29468
H         -1.28086        3.10588        1.20627
H         -0.39220        4.75628        2.74282
H          3.46109        6.11300        4.55519
H          4.34418        4.64253        2.13004
H          6.33561        5.95720        2.05444
H          4.88457        6.93575        1.88384
H          6.32752        8.22142        3.22615
H          5.14034        7.60816        4.35794
H          7.60212        6.13613        6.15180
H          5.46857        3.41368        5.63985
H          3.46888        2.87589        2.43385
H          2.64989        1.42855        0.71886
