33

C          1.21685        0.17715       -0.09965
C          0.59432        1.33550        0.69310
C          1.14985        2.61560        0.08653
O          0.62208        3.36186       -0.72228
O          2.40966        2.87092        0.50735
C         -0.93183        1.27372        0.81523
C         -1.69619        2.43134        1.03897
C         -3.08232        2.36433        1.21102
C         -3.73175        1.13222        1.20747
C         -2.99729       -0.04218        1.03144
C         -3.72576       -1.34493        1.04231
O         -4.94704       -1.37174        0.91472
C         -3.00467       -2.63214        1.16980
C         -3.27989       -3.64110        0.24170
C         -2.58739       -4.85018        0.30617
C         -1.63352       -5.05538        1.30401
C         -1.38240       -4.06101        2.25100
C         -2.07462       -2.85023        2.19307
C         -1.61106        0.03920        0.81821
H          0.77004        0.09556       -1.09737
H          1.08720       -0.78067        0.41439
H          2.29547        0.31641       -0.23434
H          0.96676        1.28955        1.72627
H          2.66447        3.68183        0.01840
H         -1.23037        3.41497        1.06977
H         -3.65617        3.27763        1.35091
H         -4.81068        1.09178        1.34444
H         -4.02659       -3.48153       -0.53322
H         -2.79293       -5.63201       -0.42081
H         -1.09285       -5.99795        1.34983
H         -0.64997       -4.23316        3.03603
H         -1.88452       -2.08863        2.94499
H         -1.05275       -0.87543        0.64850
