18

O          0.87673       -0.05667        0.12807
C          0.30557        0.70164        1.12892
C          0.82778        1.96214        1.43983
I          2.46461        2.75507        0.40895
C          0.25543        2.71886        2.45275
C         -0.83929        2.20900        3.15061
Cl        -1.49580        3.21052        4.40504
C         -1.38396        0.93652        2.84476
C         -2.49396        0.37384        3.51598
C         -2.98120       -0.87783        3.16332
C         -2.34497       -1.54634        2.14313
N         -1.28229       -1.05075        1.47823
C         -0.79925        0.16825        1.81122
H          1.63730        0.42995       -0.23127
H          0.64953        3.69987        2.70672
H         -2.99171        0.90838        4.32186
H         -3.83283       -1.31502        3.67150
H         -2.67687       -2.52790        1.81757
