25

O          0.91464       -0.00599       -0.01802
C          2.11179        0.17483       -0.19262
O          2.73678        1.30461        0.20304
C          3.01624       -0.81392       -0.87008
C          2.67772       -2.27985       -0.51954
O          1.29838       -2.57191       -0.79982
C          3.53710       -3.10104       -1.52459
O          4.57728       -3.70233       -1.30036
O          3.07350       -3.04765       -2.79773
C          2.93142       -2.72000        0.92843
C          2.77495       -4.07912        1.26949
C          2.96134       -4.53083        2.57909
C          3.28739       -3.63069        3.58678
C          3.44023       -2.28370        3.28069
C          3.27341       -1.83480        1.96594
H          3.69109        1.35054        0.00087
H          2.89397       -0.62534       -1.94457
H          4.06411       -0.60640       -0.62166
H          0.75689       -1.85427       -0.41053
H          3.67203       -3.63642       -3.30153
H          2.50014       -4.80610        0.50605
H          2.84152       -5.58596        2.81045
H          3.41557       -3.97610        4.60889
H          3.68150       -1.57372        4.06838
H          3.40583       -0.77154        1.80325
