12

O          1.18004       -0.07975        0.63809
C          2.32301       -0.02985        0.20756
C          3.08036        1.24976        0.00674
C          4.32740        0.83324       -0.74966
C          4.35057       -0.66252       -0.63281
O          5.29690       -1.35411       -0.97923
N          3.14611       -1.06733       -0.12963
Br         2.67160       -2.86125        0.07598
H          2.48564        1.96991       -0.56109
H          3.33276        1.66982        0.98557
H          5.22884        1.27232       -0.31452
H          4.25811        1.10526       -1.80771
