53

C          1.31063        0.13951       -0.39107
C          0.87863       -0.08043        1.05775
O          1.35878        1.01134        1.86303
C          2.74319        1.04626        2.28860
C          3.08588       -0.15531        3.18495
C          3.74641        1.10020        1.12822
C          2.89166        2.33753        3.14354
O          2.30590        3.47615        2.48557
C          3.09978        4.20015        1.66367
O          4.29798        4.06113        1.49173
C          2.29590        5.22244        0.95574
C          2.14611        6.59143        1.57599
C          2.93314        6.42716        0.30897
C         -0.67316       -0.17858        1.25800
C         -1.54543        0.60697        0.26936
C         -1.70090       -0.02710       -1.11049
C         -1.77757       -1.56001       -1.17353
C         -1.22186       -2.41072        0.00346
C          0.16593       -3.02978       -0.28650
C         -2.15327       -3.64192        0.15977
C         -1.21648       -1.62274        1.32874
H          1.19042        1.18495       -0.69146
H          0.79420       -0.50149       -1.09944
H          2.35589       -0.12574       -0.53928
H          1.31136       -1.00126        1.45231
H          3.05219       -1.09927        2.63104
H          4.09534       -0.06359        3.60106
H          2.37224       -0.24744        4.01023
H          3.40279        1.75775        0.32372
H          4.73121        1.44418        1.46131
H          3.91609        0.10626        0.70249
H          2.33365        2.22557        4.08025
H          3.93644        2.53082        3.41967
H          1.42129        4.81374        0.45890
H          1.16960        7.05754        1.52381
H          2.69272        6.80147        2.48889
H          4.01210        6.52448        0.35827
H          2.49661        6.79302       -0.61311
H         -0.87853        0.26069        2.24676
H         -2.55261        0.69442        0.70202
H         -1.18271        1.63723        0.16978
H         -0.90870        0.32934       -1.77615
H         -2.60990        0.38151       -1.57392
H         -1.31895       -1.88815       -2.11601
H         -2.84423       -1.79238       -1.29625
H          0.37860       -3.84972        0.41164
H          0.21828       -3.44132       -1.29946
H          1.00075       -2.34600       -0.17984
H         -3.19526       -3.34500        0.31746
H         -2.11673       -4.27031       -0.73898
H         -1.85370       -4.26243        1.01213
H         -0.68001       -2.18097        2.10631
H         -2.25515       -1.55583        1.68813
