35

C          4.83365       -1.92796        0.22071
C          3.60696       -2.56728        0.12118
C          2.43566       -1.81384       -0.00053
C          2.45205       -0.39636       -0.03337
C          1.27682        0.41759       -0.15253
C          1.39664        1.81896       -0.10036
C          2.65909        2.41123        0.00319
C          3.80604        1.62749        0.08823
C          3.71861        0.23261        0.07988
C          4.88806       -0.53662        0.20149
S          0.00333        2.92510       -0.19857
C         -1.39239        1.82207       -0.09936
C         -2.65340        2.41716        0.00536
C         -3.80208        1.63600        0.09087
C         -3.71785        0.24093        0.08163
C         -4.88900       -0.52568        0.20341
C         -4.83783       -1.91715        0.22156
C         -3.61268       -2.55925        0.12084
C         -2.43969       -1.80843       -0.00091
C         -2.45280       -0.39089       -0.03272
C         -1.27577        0.42044       -0.15202
N         -0.00017       -0.19745       -0.19069
H          5.74695       -2.50790        0.32263
H          3.55480       -3.65272        0.14580
H          1.49917       -2.36137       -0.05243
H          2.75975        3.49429        0.02651
H          4.77079        2.12259        0.17741
H          5.85844       -0.05254        0.29323
H         -2.75159        3.50044        0.02919
H         -4.76563        2.13325        0.18097
H         -5.85821       -0.03941        0.29604
H         -5.75241       -2.49505        0.32353
H         -3.56304       -3.64482        0.14454
H         -1.50453       -2.35813       -0.05384
H         -0.00121       -1.08223       -0.67834
