47

C          1.69666       -0.18563        0.85271
C          1.87276       -1.65814        1.19692
N          1.65197       -1.89395        2.64427
C          0.21400       -2.14709        3.00259
C         -0.47157       -3.28848        2.23215
C          2.45651       -2.90374        3.25810
C          2.67752       -4.10804        2.57734
C          2.80567       -5.27393        3.30633
C          2.84995       -5.19478        4.69574
C          2.21501       -6.24809        5.45427
C          2.21574       -6.14222        6.78574
C          3.09048       -5.19526        7.46991
O          3.37166       -4.01077        6.74547
C          3.05639       -3.99217        5.37312
C          2.78761       -2.82443        4.64803
C          3.53997       -5.56640        8.70442
C          4.66525       -4.97033        9.53439
N          5.59876       -4.47583       10.22292
C          2.93581       -6.80847        9.37460
O          3.31703       -7.26072       10.43704
N          1.84558       -7.41767        8.71917
C          1.03830       -8.48768        9.10239
C          1.01420       -9.34665       10.20802
C          0.03840      -10.35794       10.21612
C         -0.88914      -10.49526        9.18160
C         -0.86791       -9.62132        8.09696
C          0.11538       -8.62443        8.06158
N          0.34851       -7.72196        7.07481
C          1.41571       -7.06943        7.46665
H          0.83301        0.26259        1.35215
H          1.56348       -0.06572       -0.22859
H          2.58812        0.38025        1.14098
H          1.17591       -2.24476        0.58621
H          2.88298       -1.95175        0.88799
H          0.12468       -2.34866        4.07753
H         -0.35959       -1.22965        2.82743
H          0.19670       -4.09522        1.92539
H         -1.25942       -3.74211        2.84337
H         -0.95131       -2.91005        1.32249
H          2.50267       -4.19360        1.50894
H          2.68286       -6.22783        2.80053
H          1.59353       -6.96725        4.92544
H          2.70817       -1.86814        5.15811
H          1.72971       -9.25794       11.01959
H          0.00509      -11.05917       11.04779
H         -1.62973      -11.29128        9.20934
H         -1.57400       -9.71725        7.27809
