29

C         -3.26954        0.48249        0.16822
C         -3.04888       -0.88265       -0.08157
C         -1.75097       -1.38691       -0.21397
C         -0.68694       -0.50948       -0.08784
C         -0.91525        0.85510        0.18410
C         -2.19701        1.36583        0.30520
C          0.40222        1.58994        0.31243
C          1.41577        0.48385        0.07208
C          0.74062       -0.73272       -0.18061
C          1.44886       -1.88316       -0.47338
C          2.84545       -1.81434       -0.51037
C          3.53603       -0.61103       -0.23936
C          4.93881       -0.56130       -0.26837
C          5.62117        0.62243        0.01876
C          4.91129        1.77597        0.33673
C          3.51620        1.75275        0.35674
C          2.81270        0.56744        0.06843
H         -4.28815        0.85256        0.25926
H         -3.89877       -1.55488       -0.17370
H         -1.59153       -2.44232       -0.40588
H         -2.36743        2.41899        0.50155
H          0.48557        2.36266       -0.45783
H          0.51223        2.00757        1.31743
H          0.94283       -2.81992       -0.68018
H          3.40337       -2.71740       -0.75056
H          5.51441       -1.45125       -0.51316
H          6.70771        0.64064       -0.00313
H          5.44268        2.69498        0.56966
H          2.98303        2.66575        0.60870
