10

C          1.04533        0.01965       -0.10270
C          0.51475        0.92092       -1.17839
O         -0.18993        0.52711       -2.09876
C          0.91648        2.39850       -1.05410
O          1.61359        2.83365       -0.15818
O          0.42761        3.17223       -2.02712
H          0.70361       -1.00356       -0.28308
H          0.67239        0.34604        0.87130
H          2.13802        0.03061       -0.11589
H          0.75225        4.07422       -1.83335
