102

C         -1.50693        0.74508        2.90094
C         -0.16768        1.37201        2.21203
C          0.39782        1.48545        0.37571
C         -0.08633        2.69285       -1.11522
N         -1.45033        2.70091       -1.85116
C         -2.11726        3.35944       -2.86294
O         -3.19020        2.84133       -3.20393
C         -1.60458        4.60705       -3.62656
C         -2.74595        5.52662       -4.18950
C         -2.75730        6.95925       -3.59244
C         -1.65904        7.70467       -4.33081
C         -1.70397        7.14348       -5.74224
C         -2.37223        5.75820       -5.65130
C         -1.45943        4.58749       -6.00105
N         -0.72526        4.22488       -4.78622
C          0.63628        3.84839       -4.91483
O          1.13423        3.99812       -6.05424
C          1.73447        3.06548       -3.79395
N          2.56211        3.60058       -2.39682
C          2.55104        4.04289       -1.07313
O          3.56106        4.75843       -0.86527
C          1.62552        3.68952        0.45363
N         -0.19342        3.48551        0.89633
C         -1.60409        2.45411        0.68595
O         -2.66027        3.03265        0.97687
C         -1.75460        0.67452        0.07267
C         -1.10715       -0.53992        0.53106
N         -0.74865       -1.66596       -0.18011
C         -1.10817       -1.65699       -1.45202
C         -1.89665       -0.62441       -1.91773
N         -2.24544        0.51711       -1.18813
C          2.93721        2.83094        1.09790
C          3.00423        2.48864        2.58061
C          4.17692        1.54773        2.87519
C          4.06741        0.25974        2.06985
C          4.26002        0.54232        0.59928
C          3.44769        1.71131        0.08594
C          1.75329        1.49082       -4.06882
C          2.02750        1.15960       -5.56484
C          2.86405        0.77521       -3.27026
C          0.37316        0.87636       -3.81153
C          0.17137        4.32219       -1.46140
O          0.51968        4.56807       -2.60397
C          0.02999        5.71634       -0.75326
O         -0.63079        5.89993        0.23343
N          0.69035        6.81804       -1.41675
C          1.84736        6.83630       -2.32473
C          1.85174        6.56956       -3.81754
C          2.06644        7.95547       -3.32744
H         -2.45292        0.85354        2.35725
H         -1.70118        1.19786        3.87998
H         -1.39154       -0.32494        3.13360
H         -0.12830        2.36613        2.68609
H          0.62815        0.81145        2.70991
H          1.35259        1.71381        0.72748
H          0.69198        0.52343       -0.05448
H          0.58301        2.18854       -1.79983
H         -2.02022        1.87039       -1.72958
H         -1.16823        5.32779       -2.96023
H         -3.73661        5.08137       -4.06447
H         -2.59591        6.98447       -2.50866
H         -3.71448        7.45326       -3.79564
H         -1.78102        8.79301       -4.30863
H         -0.70156        7.49363       -3.86269
H         -2.32418        7.80395       -6.36173
H         -0.71150        7.11953       -6.20394
H         -3.26183        5.76342       -6.29156
H         -0.82657        4.80674       -6.86313
H         -2.08172        3.71847       -6.24795
H          2.61923        3.34319       -4.40369
H          3.35725        4.11092       -2.77162
H          1.71924        4.65608        0.98065
H         -0.56569        4.38331        1.23763
H         -0.56664       -0.65865        1.45745
H         -0.71948       -2.46556       -2.06444
H         -2.20681       -0.63694       -2.95892
H          3.76407        3.55687        1.03812
H          3.12845        3.41024        3.16092
H          2.09730        2.03395        2.94840
H          4.20278        1.30860        3.94202
H          5.12309        2.04946        2.63259
H          3.09519       -0.21818        2.23863
H          4.83660       -0.45328        2.38675
H          4.01921       -0.35349        0.00973
H          5.31691        0.75269        0.39945
H          2.63344        1.28823       -0.50462
H          4.06693        2.18562       -0.68176
H          3.00998        1.50845       -5.89311
H          1.99618        0.07080       -5.71685
H          1.26424        1.57215       -6.23169
H          3.56222        1.47380       -2.80786
H          2.46406        0.12895       -2.48470
H          3.48879        0.14402       -3.91207
H         -0.36516        1.64877       -3.64152
H         -0.03289        0.31880       -4.66137
H          0.39198        0.20584       -2.95488
H          0.51830        7.70143       -0.94963
H          2.76489        6.61504       -1.79010
H          2.69895        6.05060       -4.25978
H          0.94374        6.38526       -4.37042
H          1.28424        8.66974       -3.54175
H          3.06992        8.34224       -3.48276
