42

O          1.05663       -0.07587       -0.10884
C          2.28470       -0.04866       -0.02629
N          2.95374        0.56339       -1.04037
C          4.34223        0.58747       -1.50498
C          4.54689       -0.44420       -2.62946
O          5.60651       -0.69821       -3.18545
O          3.41387       -1.05475       -3.03461
C          4.77073        1.99746       -2.00478
C          3.97548        3.14728       -1.35324
C          4.47630        4.52077       -1.79439
C          5.96352        4.69018       -1.51654
C          6.77367        3.57918       -2.17204
C          6.28148        2.19870       -1.74722
O          2.88284       -0.58890        1.05779
C          4.27037       -0.68901        1.42011
C          4.93512       -1.87096        0.75598
C          4.21289       -3.04182        0.47902
C          4.82885       -4.12935       -0.14076
C          6.17724       -4.06440       -0.48169
C          6.91392       -2.91848       -0.18904
C          6.30089       -1.83225        0.43867
H          2.28220        0.74630       -1.77753
H          4.99610        0.28604       -0.70161
H          3.71340       -1.69641       -3.71240
H          4.60273        2.05715       -3.08954
H          2.91497        3.07307       -1.62136
H          4.04035        3.07282       -0.26027
H          3.91202        5.30208       -1.27289
H          4.28634        4.65177       -2.86693
H          6.13691        4.68229       -0.43328
H          6.30166        5.66395       -1.88775
H          7.83057        3.68971       -1.90369
H          6.70893        3.67051       -3.26288
H          6.49167        2.06518       -0.67756
H          6.86298        1.43723       -2.27854
H          4.77611        0.26616        1.25438
H          4.29743       -0.85797        2.50305
H          3.15801       -3.11228        0.74071
H          4.25404       -5.02651       -0.35574
H          6.65565       -4.90933       -0.96997
H          7.96760       -2.87098       -0.45270
H          6.89651       -0.94941        0.66093
