49

C          1.62992        1.99340       -0.17637
C          0.71734        2.81758        0.77134
C         -0.76319        2.45462        0.45368
C         -1.17005        2.79626       -0.98583
C         -0.83968        4.22226       -1.34384
O         -1.37951        4.80818       -2.28556
C          0.18830        4.92822       -0.55959
C          0.88493        4.31709        0.41565
C          1.85265        5.16640        1.19796
C          1.75378        4.84127        2.67884
C          2.19148        3.38222        2.82322
C          1.04350        2.48170        2.31510
C          1.31923        0.98392        2.59364
C          2.08972        0.65169        3.87610
C          3.25083        1.57787        4.28057
C          3.69426        1.15300        5.70792
C          4.55450        1.61016        3.42320
O          4.34646        1.36465        2.04109
C          5.11217        3.04633        3.59182
C          4.09138        3.80595        4.44735
C          2.77331        3.04854        4.21881
H          1.58854        2.34131       -1.21376
H          1.32459        0.93911       -0.20040
H          2.67911        2.03633        0.12685
H         -1.42293        3.00841        1.13661
H         -0.95182        1.38980        0.63181
H         -2.25124        2.66314       -1.09738
H         -0.67149        2.14152       -1.70821
H          0.34672        5.96881       -0.82312
H          1.65694        6.23591        1.06032
H          2.87407        4.98954        0.83488
H          0.72997        4.98770        3.04847
H          2.38381        5.53612        3.23645
H          3.00591        3.24570        2.10924
H          0.15130        2.74059        2.90567
H          1.86417        0.51211        1.77680
H          0.35631        0.45542        2.63020
H          1.35641        0.65391        4.69552
H          2.45225       -0.38275        3.80945
H          3.95205        0.08624        5.71981
H          4.59040        1.68140        6.05183
H          2.90345        1.32049        6.44429
H          5.29827        0.88107        3.76031
H          3.96846        0.47566        1.94923
H          6.08839        3.04833        4.08597
H          5.23459        3.54802        2.62340
H          4.06083        4.86655        4.19008
H          4.37729        3.76743        5.50475
H          2.04174        3.27393        5.00395
