62

C          1.04238       -0.29741        0.40486
C          0.79297        1.15741        0.77211
C          1.23854        2.13708       -0.31705
C          0.54579        1.95257       -1.67124
C         -0.97869        2.08094       -1.62071
C         -1.46935        3.48006       -1.23794
C         -1.08745        4.57884       -2.24230
C         -1.51639        4.30327       -3.69219
C         -3.00936        4.19997       -3.77411
C         -3.75818        5.05039       -4.48591
C         -5.23272        5.19717       -4.26533
C         -5.51454        6.56302       -3.62077
C         -5.12114        7.77342       -4.48429
C         -5.74291        7.77411       -5.88293
C         -7.27064        7.80013       -5.85785
C         -7.84938        9.16811       -5.48923
C         -7.68357       10.25209       -6.56142
C         -8.01356        9.86593       -8.00834
O         -9.40000        9.76478       -8.30704
C        -10.09853        8.60261       -7.88618
C         -9.84238        7.28566       -8.63926
O         -8.75171        7.29263       -9.54464
H          0.44600       -0.60372       -0.45983
H          0.76943       -0.94957        1.23994
H          2.09875       -0.46441        0.17229
H         -0.26777        1.29932        1.00659
H          1.34201        1.38725        1.69257
H          1.07884        3.16020        0.04316
H          2.32054        2.03681       -0.46551
H          0.95866        2.68096       -2.37883
H          0.80239        0.97077       -2.08454
H         -1.38879        1.79445       -2.59566
H         -1.39658        1.35356       -0.91659
H         -2.55937        3.44713       -1.12263
H         -1.08971        3.75769       -0.24837
H         -1.54082        5.52112       -1.90475
H         -0.00450        4.74310       -2.21624
H         -1.15217        5.12709       -4.31903
H         -1.05392        3.39220       -4.08231
H         -3.50020        3.48157       -3.12286
H         -3.27516        5.76212       -5.15027
H         -5.77145        5.07153       -5.20928
H         -5.60629        4.41419       -3.59341
H         -6.57558        6.62095       -3.35494
H         -4.97085        6.63355       -2.66893
H         -5.39543        8.68985       -3.95060
H         -4.03041        7.81623       -4.58823
H         -5.35454        8.62728       -6.44999
H         -5.41209        6.88697       -6.43532
H         -7.63808        7.47534       -6.83237
H         -7.65861        7.05251       -5.15906
H         -8.90898        9.05625       -5.24292
H         -7.39262        9.52779       -4.55958
H         -8.29704       11.11265       -6.26951
H         -6.63978       10.59050       -6.53646
H         -7.64735       10.68447       -8.64002
H         -7.45568        8.98865       -8.33682
H         -9.99365        8.44310       -6.81417
H        -11.16404        8.83540       -8.00479
H         -9.69790        6.47088       -7.91860
H        -10.73744        7.02001       -9.21097
H         -7.94734        7.08716       -9.04190
