26

O          1.08229        0.00379        0.08644
C          0.67431       -0.84382       -0.99489
C          1.17319       -0.27338       -2.31843
C          1.93737       -1.00739       -3.23925
C          2.35355       -0.43387       -4.44429
C          2.02078        0.88384       -4.74655
C          1.26287        1.62959       -3.84873
C          0.83597        1.05363       -2.65064
C          1.07370       -2.27452       -0.67210
C          0.33372       -3.34672       -1.20040
C          0.70758       -4.66762       -0.94279
C          1.82197       -4.93658       -0.15099
C          2.56546       -3.88655        0.38196
C          2.19739       -2.56568        0.11965
H          1.76709        0.59925       -0.25948
H         -0.42275       -0.80407       -1.00951
H          2.22065       -2.03869       -3.03991
H          2.93906       -1.02094       -5.14779
H          2.34954        1.32735       -5.68265
H          1.00034        2.65825       -4.08178
H          0.23394        1.65003       -1.96589
H         -0.53603       -3.15575       -1.82584
H          0.12886       -5.48727       -1.36059
H          2.11055       -5.96425        0.05283
H          3.43206       -4.09307        1.00451
H          2.79063       -1.75964        0.54604
