46

O          2.46877       -0.27136       -0.07093
C          1.10762       -0.20818       -0.03745
C          0.51446        1.03378       -0.20876
C         -0.87676        1.14467       -0.19492
C         -1.68418        0.01694        0.00872
C         -3.19087        0.11616       -0.00375
C         -3.82514        0.72448        1.25449
C         -3.65122        2.23754        1.45293
C         -4.05148        3.12284        0.26594
N         -5.47472        3.04320       -0.04518
C         -5.82671        3.74944       -1.29530
C         -5.34205        3.05764       -2.60228
O         -5.86226        1.72205       -2.61951
C         -5.71814        3.78593       -3.88394
C         -5.49134        5.17049       -4.02235
C         -5.76737        5.83772       -5.22254
C         -6.25476        5.11661       -6.30295
O         -6.52881        5.70818       -7.50476
C         -6.46663        3.74748       -6.19050
O         -6.92595        3.03939       -7.26454
C         -6.20344        3.08132       -5.00036
C         -1.06238       -1.22931        0.18154
C          0.33071       -1.34477        0.15428
H          2.73753       -1.19649        0.04887
H          1.13148        1.91475       -0.36154
H         -1.31366        2.12455       -0.35437
H         -3.50509        0.64761       -0.90748
H         -3.60266       -0.89586       -0.11971
H         -4.89980        0.50429        1.23047
H         -3.43396        0.21297        2.14346
H         -4.23165        2.53836        2.33503
H         -2.60524        2.44729        1.70582
H         -3.80361        4.16105        0.51775
H         -3.44207        2.85856       -0.60046
H         -5.81954        2.08745       -0.07494
H         -6.92200        3.80907       -1.32095
H         -5.46441        4.78114       -1.23063
H         -4.24923        2.97326       -2.61055
H         -5.40768        1.24157       -1.91152
H         -5.07875        5.74989       -3.19948
H         -5.58331        6.90485       -5.29205
H         -6.33541        6.65768       -7.42433
H         -7.02580        3.70692       -7.97144
H         -6.36860        2.00750       -4.95394
H         -1.66082       -2.12685        0.32493
H          0.78465       -2.32241        0.27810
