26

N          0.83461        0.11303       -0.01653
C          0.47950       -1.25103        0.49051
C          1.00936       -1.42910        1.90921
O          0.40038       -1.26257        2.95359
O          2.33531       -1.69087        1.92637
C         -1.05429       -1.45706        0.44495
O         -1.52860       -1.13180       -0.87007
C         -1.52411       -2.85920        0.77184
C         -2.57964       -3.04322        1.68654
C         -3.02346       -4.32405        2.03235
C         -2.40831       -5.42904        1.46126
O         -2.78431       -6.70706        1.76985
C         -1.37713       -5.26026        0.54268
O         -0.77551       -6.35320       -0.01377
C         -0.94107       -3.99199        0.18229
H          0.49948        0.80504        0.65828
H          1.85529        0.18814        0.00541
H          0.97524       -1.97285       -0.16755
H          2.55765       -1.76633        2.87843
H         -1.53093       -0.74409        1.13031
H         -0.94788       -0.40293       -1.16963
H         -3.06465       -2.17955        2.13868
H         -3.83750       -4.43046        2.74161
H         -3.51861       -6.65709        2.40571
H         -1.24784       -7.11460        0.37805
H         -0.15523       -3.90121       -0.56167
