50

C          1.24143       -0.37547       -0.25999
C          0.66652       -0.30445        1.15404
C          1.00216        0.99403        1.94400
C          0.36887        2.24689        1.26808
O         -1.06782        2.24570        1.40668
C         -1.82265        1.79711        0.37232
O         -1.38425        1.49495       -0.72796
C         -3.29605        1.74525        0.71086
C         -3.63023        1.50654        2.17897
S         -3.51379        3.02045        3.18683
C          0.41794        0.90774        3.38427
O          0.80567       -0.27426        4.10377
C         -0.18026       -1.18037        4.33118
O         -1.27034       -1.17722        3.76919
C          0.20076       -2.23827        5.33862
C          1.54495       -2.08152        6.03348
S          1.58278       -0.75800        7.27561
C          2.53729        1.21287        2.02086
O          3.24640       -0.01133        2.29276
C          3.78284       -0.17326        3.52755
O          3.71202        0.64166        4.43879
C          4.53422       -1.47994        3.64214
C          3.78488       -2.68436        3.08247
S          4.13150       -2.98288        1.32486
H          0.92531        0.46229       -0.88408
H          0.90686       -1.29549       -0.74987
H          2.33435       -0.38696       -0.25316
H         -0.41998       -0.43380        1.09722
H          1.03677       -1.18129        1.69778
H          0.71429        3.15413        1.77923
H          0.66998        2.36051        0.22123
H         -3.77735        2.64960        0.32488
H         -3.69742        0.89093        0.14988
H         -4.66449        1.15654        2.26085
H         -2.98619        0.73835        2.61670
H         -2.19108        3.19229        3.03188
H          0.77438        1.76089        3.97542
H         -0.67215        1.00466        3.37907
H         -0.60119       -2.29424        6.08356
H          0.21523       -3.18586        4.78653
H          1.79353       -3.01672        6.54515
H          2.34122       -1.88904        5.31794
H          2.31521        0.10851        6.55108
H          2.91363        1.56586        1.05355
H          2.79019        2.00026        2.74194
H          5.53347       -1.36128        3.21191
H          4.66961       -1.65077        4.71860
H          4.09414       -3.58551        3.62223
H          2.70163       -2.58410        3.19883
H          3.50484       -1.88847        0.86851
