18

C         -1.73046       -1.62306       -0.00421
C         -0.49353       -0.77096        0.00074
C          0.76708       -1.39028       -0.00212
C          1.93928       -0.62920        0.00473
C          1.85405        0.76800        0.01445
N          3.08118        1.57162        0.02402
O          2.96632        2.80535        0.03516
O          4.16424        0.96821        0.02071
C          0.60940        1.40303        0.01553
C         -0.55023        0.62974        0.00790
O         -1.72709        1.32259        0.00822
H         -2.33525       -1.41733        0.88482
H         -2.32288       -1.42485       -0.90314
H         -1.48615       -2.69060        0.00288
H          0.84685       -2.47636       -0.00903
H          2.90142       -1.13768        0.00294
H          0.52378        2.48720        0.02218
H         -2.47481        0.70503       -0.00739
