42

Cl        -3.44197        0.39694        0.66549
C         -1.81760       -0.15968        0.58499
C         -1.55625       -1.47419        0.23129
C         -0.23368       -1.89970        0.09668
C          0.86149       -1.02025        0.29473
C          2.24051       -1.53785       -0.13227
C          2.67560       -1.19161       -1.58602
N          2.66348        0.18204       -2.03490
C          1.55724        0.92899       -2.34227
C          2.05185        2.13117       -2.79357
N          3.41193        2.08174       -2.90277
C          3.74316        0.87166       -2.50680
O          3.20693       -1.82501        0.88265
C          4.11769       -0.86770        1.40073
C          5.25099       -0.47954        0.50068
C          5.76951        0.80015        0.45772
S          7.03102        0.97066       -0.66833
C          6.87728       -0.66330       -1.20484
C          7.51971       -1.29758       -2.29105
Cl         8.54915       -0.43103       -3.37061
C          7.28292       -2.65265       -2.53615
C          6.46166       -3.38586       -1.69441
C          5.81794       -2.75834       -0.62656
C          5.96881       -1.36447       -0.39713
C          0.56265        0.28993        0.70998
Cl         1.75165        1.50646        0.98641
C         -0.76871        0.71427        0.84491
H         -2.37025       -2.16606        0.02863
H         -0.06880       -2.93177       -0.21439
H          2.00607       -2.59799       -0.31654
H          3.65931       -1.60803       -1.80439
H          1.98333       -1.70125       -2.27314
H          0.54661        0.58270       -2.19056
H          1.49748        3.01580       -3.07617
H          4.73389        0.45394       -2.56190
H          3.59418       -0.00758        1.80784
H          4.57614       -1.34549        2.27713
H          5.45606        1.66034        1.03583
H          7.74981       -3.14010       -3.38896
H          6.29771       -4.44501       -1.87809
H          5.15084       -3.34127        0.00603
H         -0.98588        1.74522        1.11636
