46

C          0.92860       -0.03146        0.06255
C         -0.37526       -0.03146        0.06255
C         -1.89526       -0.03146        0.06255
O         -2.25049        0.57473       -1.18775
C         -2.05367       -1.56665       -0.09996
C         -3.49881       -1.82203        0.10214
C         -3.83157       -0.94203        1.30325
C         -5.35815       -0.83053        1.47579
C         -6.11277       -2.11637        1.12970
C         -7.38755       -2.13184        0.72682
C         -7.96371       -0.90539        0.29776
C         -8.53516       -0.81637       -0.91846
C         -9.88273       -0.20994       -0.66362
O        -10.80829       -0.43219       -1.45264
C        -10.03062        0.61118        0.60560
C         -8.67654        1.33135        0.91699
C         -7.57669        0.28018        1.15065
C         -6.03917        0.44004        0.87352
C         -5.26761        1.64820        1.40345
C         -3.82889        1.62308        0.81059
C         -2.93928        0.36713        1.16732
C         -2.21129        0.67749        2.48614
H          1.99388       -0.02529        0.05417
H         -2.95820        0.05616       -1.60064
H         -1.48719       -2.10810        0.67507
H         -1.72607       -1.93997       -1.07774
H         -3.62689       -2.88907        0.30685
H         -4.08134       -1.55378       -0.78429
H         -3.46574       -1.48568        2.18938
H         -5.49409       -0.73847        2.56730
H         -5.57654       -2.99468        0.78209
H         -8.06188       -2.78413        1.28804
H         -8.14739       -0.06591       -1.62315
H        -10.84543        1.32481        0.47225
H        -10.30655       -0.08680        1.41040
H         -8.81285        1.92657        1.82672
H         -8.42070        2.01071        0.09903
H         -7.69842       -0.00557        2.20733
H         -5.89502        0.43545       -0.21824
H         -5.22727        1.65350        2.49845
H         -5.76341        2.57499        1.09210
H         -3.30652        2.54170        1.10872
H         -3.95859        1.71181       -0.27350
H         -1.63144       -0.17888        2.84403
H         -1.51343        1.51396        2.35162
H         -2.91579        0.96335        3.27406
