13

N         -3.08011        0.01691       -0.06203
C         -1.91954        0.01111       -0.04336
C         -0.48622        0.00393       -0.01914
C          0.22193        1.21069       -0.00563
C          1.61792        1.20207        0.02081
C          2.30792       -0.01008        0.03354
C          1.60583       -1.21525        0.01899
C          0.20983       -1.20986       -0.00746
H         -0.30681        2.16193       -0.01504
H          2.16782        2.14023        0.03194
H          3.39534       -0.01553        0.05495
H          2.14633       -2.15887        0.02869
H         -0.32839       -2.15576       -0.01831
