34

C          1.33586        0.23940        0.19570
C          0.76616        0.55140       -1.19834
C          1.66043       -0.12074       -2.23610
C         -0.78138        0.33289       -1.33447
O         -1.36042        1.53889       -0.72618
C         -1.35298        0.36610       -2.78446
C         -1.10129       -0.75319       -3.81703
C         -1.82407       -2.11779       -3.72021
C         -3.34455       -1.99940       -3.73741
O         -1.47504       -2.87110       -4.90817
C         -1.25518       -2.96783       -2.57797
O         -0.06898       -3.11730       -2.32228
O         -2.17145       -3.58650       -1.80624
C         -1.41975       -0.79863       -0.49529
O         -0.88744       -1.54377        0.30549
O         -2.76108       -0.87454       -0.65945
H          1.42211       -0.83936        0.36257
H          0.73064        0.67447        0.99548
H          2.34742        0.65074        0.29321
H          0.93319        1.63112       -1.33247
H          1.51778       -1.20189       -2.25997
H          1.48956        0.30036       -3.23085
H          2.71863        0.06183       -2.01440
H         -1.08769        1.56079        0.20799
H         -2.43677        0.54142       -2.73767
H         -0.97271        1.29448       -3.23818
H         -1.39102       -0.31874       -4.78677
H         -0.03354       -0.93813       -3.94296
H         -3.68415       -1.51852       -4.66212
H         -3.81353       -2.99070       -3.72342
H         -3.73753       -1.43345       -2.89157
H         -1.55304       -2.28371       -5.67813
H         -1.61019       -4.10151       -1.18544
H         -3.04712       -1.60194       -0.06858
