26

C         -0.94848       -0.21535       -0.77803
C          0.06554       -0.96121       -1.62872
O          1.05491       -1.49822       -0.74785
C          2.25863       -1.77814       -1.33690
C          2.32479       -2.49385       -2.54068
C          3.55880       -2.85800       -3.08406
C          4.73489       -2.53531       -2.41455
C          4.67454       -1.83739       -1.20931
C          3.44525       -1.43602       -0.67121
O          3.56848       -0.73962        0.50224
C          2.63896        0.31041        0.77096
C          2.69252        1.43295       -0.25572
H         -1.37686       -0.87738       -0.01805
H         -1.75600        0.18944       -1.39365
H         -0.46893        0.61123       -0.24301
H         -0.43752       -1.77511       -2.16127
H          0.51046       -0.26546       -2.35065
H          1.42070       -2.80432       -3.05535
H          3.60035       -3.41245       -4.01796
H          5.69755       -2.83104       -2.82267
H          5.59421       -1.59076       -0.68378
H          1.62841       -0.07115        0.93161
H          2.93578        0.73275        1.73816
H          2.44648        1.08437       -1.26266
H          1.99016        2.22873        0.00865
H          3.70098        1.85621       -0.30522
