15

C          0.91213       -0.02902        0.09244
N          0.45119        0.77817        1.21583
C         -0.38263        1.92168        0.86970
C          0.79292        0.46194        2.50257
N          1.52418       -0.53106        2.88019
N          0.33106        1.25139        3.48279
H          0.55899        0.34616       -0.87373
H          0.55164       -1.05855        0.19116
H          2.00674       -0.03864        0.05537
H         -1.36812        1.83202        1.33919
H          0.08808        2.85271        1.20329
H         -0.54825        2.01437       -0.20882
H          1.82409       -1.06692        2.06909
H         -0.24761        2.05875        3.34590
H          0.59885        0.99447        4.42264
