26

O          1.06445       -0.01767       -0.02275
C          2.29359       -0.03152       -0.00877
O          2.96742        0.79626       -0.84468
C          3.08605       -0.95661        0.92540
F          2.74513       -0.71516        2.22752
F          2.74513       -2.26103        0.69668
C          4.58166       -0.80145        0.76872
F          4.92485       -1.03194       -0.53206
F          4.92485        0.50152        0.98650
C          5.35148       -1.72232        1.69863
F          5.01068       -1.47134        2.99051
F          5.01068       -3.01660        1.46028
C          6.84895       -1.54263        1.51717
F          7.18538       -1.78687        0.22098
F          7.18537       -0.24412        1.74874
C          7.63383       -2.45744        2.44097
F          7.29377       -2.20972        3.73458
F          7.29377       -3.75342        2.20589
C          9.12114       -2.26866        2.25033
F          9.47023       -2.51756        0.95597
F          9.47023       -0.97193        2.48658
C          9.88049       -3.19181        3.18254
F          9.60416       -2.94809        4.48444
F          9.60416       -4.49603        2.95155
F         11.22084       -3.04437        3.03365
H          3.94618        0.80158       -0.85006
