57

C         -0.12481       -0.07597       -0.54527
C          0.89183       -1.08641       -1.04369
C          1.24353       -2.10708        0.03578
O          0.33992       -2.69550        0.63496
N          2.61419       -2.39607        0.17911
C          3.46656       -1.23466        0.29100
C          4.56994       -1.06988       -0.54994
C          5.35933        0.08088       -0.47527
C          5.03992        1.09063        0.42928
C          3.92589        0.95611        1.25278
C          3.13863       -0.19444        1.17523
C          3.02901       -3.63203        0.99178
C          2.78309       -3.43162        2.53064
O          3.51145       -2.35908        3.12847
C          4.70605       -2.73552        3.79200
C          4.49990       -4.05466        0.72463
C          4.72793       -4.60788       -0.68983
N          3.82728       -5.71010       -1.02360
C          4.10162       -6.29157       -2.35408
C          3.50683       -5.64756       -3.62945
C          4.01195       -4.26791       -3.95461
C          3.31818       -3.07264       -3.90465
C          4.12037       -1.95784       -4.28466
C          5.39802       -2.33750       -4.62757
S          5.62017       -4.02882       -4.50192
C          2.42502       -5.34681       -0.83013
C          2.19515       -4.90161        0.60764
H         -1.04482       -0.56523       -0.20390
H         -0.37429        0.60200       -1.36713
H          0.26984        0.51193        0.29170
H          0.45747       -1.65176       -1.87808
H          1.76280       -0.56724       -1.45357
H          4.82174       -1.80836       -1.29849
H          6.21914        0.18674       -1.13216
H          5.65420        1.98484        0.48837
H          3.66974        1.73946        1.96174
H          2.28498       -0.28799        1.84364
H          1.72332       -3.20725        2.69853
H          2.97607       -4.36362        3.07829
H          4.53028       -3.54415        4.50719
H          5.48338       -3.02327        3.08219
H          5.06576       -1.86271        4.34388
H          5.20035       -3.23406        0.89924
H          4.77812       -4.83899        1.44238
H          4.62057       -3.80716       -1.41544
H          5.76773       -4.95281       -0.74630
H          5.18513       -6.41897       -2.47747
H          3.71317       -7.31911       -2.31790
H          3.72582       -6.30794       -4.48031
H          2.41174       -5.63151       -3.56099
H          2.28218       -2.99768       -3.59667
H          3.77857       -0.92984       -4.30405
H          6.21055       -1.70242       -4.95415
H          1.79170       -6.22128       -1.02237
H          2.10561       -4.55358       -1.51379
H          2.48075       -5.72992        1.27345
H          1.12381       -4.77700        0.77995
