34

C          1.80048       -0.15008       -0.16623
C          1.73465       -1.60910        0.18570
O          1.73107       -2.00698        1.33718
O          1.65388       -2.35139       -0.95106
C          1.26381       -3.75059       -0.98690
C          1.16233       -4.45803        0.32741
C          0.06912       -4.89697        0.98903
C          0.26435       -5.60568        2.30893
C         -1.37866       -4.80170        0.52123
C         -2.10844       -3.45482        0.73659
C         -1.71235       -2.44150       -0.29825
C         -2.40600       -1.95408       -1.34256
C         -1.71324       -1.11287       -2.38331
C         -3.85895       -2.23019       -1.58409
H          1.35014        0.43015        0.64574
H          1.21571        0.05393       -1.06765
H          2.83802        0.15319       -0.31047
H          0.33186       -3.80976       -1.55608
H          2.01550       -4.26120       -1.59898
H          2.13672       -4.60948        0.79279
H         -0.23375       -5.06031        3.11549
H         -0.14695       -6.61957        2.25828
H          1.32295       -5.70340        2.57668
H         -1.44344       -5.10329       -0.53163
H         -1.95302       -5.56459        1.06583
H         -3.18926       -3.63138        0.69532
H         -1.89288       -3.05579        1.73492
H         -0.69643       -2.10049       -0.17449
H         -1.88425       -1.53574       -3.38001
H         -2.08255       -0.08447       -2.36706
H         -0.62774       -1.08919       -2.23899
H         -4.04723       -3.30111       -1.69730
H         -4.45997       -1.83855       -0.75669
H         -4.20679       -1.73216       -2.49612
