11

C          1.01996       -0.01502       -0.11657
C          0.29904        0.94498        0.47751
C         -1.19111        0.90198        0.65000
N         -1.53541        0.97389        2.07579
C         -1.44932       -0.03923        2.66438
S         -1.32877       -1.39917        3.48215
H          0.55894       -0.90780       -0.52811
H          2.09915        0.07382       -0.19975
H          0.80780        1.82066        0.87550
H         -1.62044        1.77838        0.15009
H         -1.63635        0.02116        0.16701
