47

C          0.99089        1.22158        0.93910
C         -0.05494        1.73456       -0.05347
N          0.43881        1.95269       -1.39848
C         -0.13002        2.60483       -2.45408
O          0.60347        2.76451       -3.43866
C         -1.62002        3.05059       -2.54403
N         -2.52804        1.89914       -2.71415
C         -2.12007        3.99314       -1.46053
C         -1.59337        5.36959       -1.72442
O         -2.25913        6.35967       -1.98406
O         -0.25370        5.44363       -1.64761
C         -1.21002        0.75342       -0.03945
O         -2.11029        0.88173        0.79857
N         -1.28563       -0.35311       -0.82423
C         -0.61459       -0.91833       -2.04316
C          0.93880       -1.21198       -2.20989
C          1.62745       -0.47073       -3.37257
C          1.88209       -1.31347       -1.02262
S          0.57187       -2.92269       -2.84123
C         -1.02750       -2.45590       -2.13967
C         -1.26774       -3.18014       -0.80924
C         -2.16877       -2.71190       -3.12062
H          0.98631        0.13113        1.02486
H          0.74991        1.58066        1.94743
H          2.00329        1.55700        0.69900
H         -0.39047        2.70159        0.32044
H          1.44113        1.87903       -1.52732
H         -1.68319        3.59305       -3.49778
H         -2.58919        1.33307       -1.87456
H         -2.18863        1.31138       -3.47415
H         -3.21519        4.06158       -1.49564
H         -1.87676        3.70750       -0.43993
H         -0.04852        6.36526       -1.91670
H         -2.17826       -0.78634       -0.59284
H         -0.98233       -0.36011       -2.91507
H          1.92205        0.54051       -3.09022
H          2.55077       -0.98021       -3.67756
H          0.98301       -0.39460       -4.25626
H          1.40435       -1.75166       -0.14390
H          2.76507       -1.91935       -1.25972
H          2.26841       -0.32707       -0.75564
H         -2.24642       -2.91440       -0.39231
H         -1.25641       -4.26748       -0.93252
H         -0.51831       -2.91955       -0.05430
H         -1.98172       -2.25780       -4.10057
H         -2.32893       -3.78530       -3.27246
H         -3.10458       -2.28757       -2.73945
