22

Cl        -2.09819       -0.01704       -0.06812
C         -0.37848       -0.00812       -0.03209
C          0.32097       -1.21162       -0.04516
C          1.71905       -1.20266       -0.01665
C          2.43371        0.00657        0.02831
C          3.90377        0.01433        0.06047
C          4.59943        0.63799        1.11062
C          5.99661        0.64581        1.14606
C          6.72169        0.03083        0.12776
C          6.04585       -0.58954       -0.91972
Cl         6.93928       -1.34697       -2.18092
C          4.65070       -0.60161       -0.95693
C          1.70519        1.20825        0.04164
C          0.30716        1.20261        0.01025
H         -0.21122       -2.15856       -0.07516
H          2.25087       -2.15260       -0.01782
H          4.05043        1.11511        1.92102
H          6.51647        1.12932        1.96945
H          7.80791        0.03816        0.15630
H          4.14175       -1.08324       -1.78905
H          2.22683        2.16346        0.06448
H         -0.23576        2.14389        0.01655
