29

C          0.68785        0.02819       -0.09327
C          0.57716       -1.32177       -0.77749
O          1.11133       -2.35000        0.06594
C          2.45323       -2.55205       -0.02755
O          3.21342       -1.93247       -0.75800
O          2.78925       -3.56668        0.85460
C          4.14885       -3.89005        0.92326
C          4.51322       -5.20370        0.64526
C          5.85306       -5.58886        0.75903
C          6.82421       -4.66828        1.16285
N          8.19415       -4.97527        1.30220
C          8.81055       -6.19365        1.08677
C         10.29974       -6.15305        1.33306
O          8.27252       -7.24013        0.74091
C          6.43292       -3.35328        1.45789
C          5.09554       -2.96331        1.35021
H          0.19572        0.00509        0.88461
H          0.22666        0.81077       -0.70228
H          1.73459        0.29493        0.08366
H         -0.47778       -1.56203       -0.94590
H          1.06537       -1.31591       -1.75884
H          3.76606       -5.93119        0.34123
H          6.10389       -6.61913        0.52679
H          8.78532       -4.20878        1.59635
H         10.53922       -6.81492        2.16987
H         10.81792       -6.49458        0.43265
H         10.65492       -5.14722        1.57257
H          7.16148       -2.61375        1.77956
H          4.80717       -1.94494        1.59286
