28

C          0.42095       -1.01715        0.00930
C         -0.09379       -0.74480       -1.20190
C         -1.46360       -0.17540       -1.39241
C          0.76442       -1.00371       -2.39263
O          1.82182       -1.61259       -2.35416
O          0.22644       -0.41562       -3.49111
C          1.05176       -0.40164       -4.66868
C          1.81493        0.91964       -4.78233
O          2.85786        1.00519       -3.79523
C          2.53790        1.63840       -2.63825
O          1.46763        2.17716       -2.39354
C          3.64329        1.54721       -1.64130
C          4.89305        1.19186       -1.98430
C          3.26724        1.89104       -0.23153
H         -0.14132       -0.83331        0.91853
H          1.42564       -1.41659        0.12460
H         -1.41705        0.80055       -1.88642
H         -2.07624       -0.84958       -1.99976
H         -1.97956       -0.03278       -0.43662
H          1.73532       -1.25764       -4.69052
H          0.37482       -0.50121       -5.52370
H          2.30839        0.96747       -5.75875
H          1.13595        1.77743       -4.71726
H          5.68136        1.12639       -1.24110
H          5.16582        0.94361       -3.00525
H          2.69067        2.82071       -0.18883
H          2.66387        1.08862        0.20429
H          4.14926        2.02858        0.40300
