29

C          0.73720        0.16807        0.73408
C          0.86858        1.21177       -0.37031
C          0.33707        2.58154        0.07042
C          0.53861        3.64444       -1.01883
C          0.01200        3.24154       -2.41657
C          0.45787        4.24388       -3.52081
C         -0.17203        3.92965       -4.88669
C          0.11190        5.69748       -3.17033
C          0.48431        1.80948       -2.69881
O          1.11424        1.47785       -3.69955
C          0.13822        0.78913       -1.64004
H          0.79812       -0.84850        0.33122
H         -0.20640        0.26513        1.27936
H          1.55465        0.28328        1.45478
H          1.93782        1.31284       -0.60386
H         -0.73193        2.50973        0.31006
H          0.84571        2.90472        0.98656
H          1.61085        3.86864       -1.08589
H          0.04018        4.56143       -0.68322
H         -1.08550        3.21136       -2.38783
H          1.54831        4.17867       -3.63393
H         -1.26521        3.94850       -4.83299
H          0.14313        4.66752       -5.63335
H          0.12940        2.95269       -5.27115
H          0.63848        6.03656       -2.27383
H          0.40602        6.37213       -3.98233
H         -0.96447        5.81789       -3.00667
H          0.46309       -0.20014       -1.97900
H         -0.94932        0.75991       -1.50800
