18

Cl         1.02050       -0.03846        0.13923
C          2.73767       -0.07453        0.03056
C          3.39992       -1.29732       -0.01719
C          4.79293       -1.32760       -0.10847
C          5.53349       -0.13558       -0.15419
C          6.93416       -0.15096       -0.25064
C          7.65771        1.04233       -0.29810
C          6.98565        2.25963       -0.24726
Cl         7.87843        3.72972       -0.30691
C          5.59527        2.29829       -0.14982
C          4.85431        1.10648       -0.10372
C          3.45336        1.12140       -0.01051
H          2.84105       -2.22882        0.01508
H          5.29619       -2.29169       -0.14517
H          7.47419       -1.09478       -0.29135
H          8.74137        1.01344       -0.37505
H          5.08927        3.26025       -0.11130
H          2.91656        2.06649        0.02846
