42

C          0.84480        1.14550       -0.30514
C          1.04256       -0.12452        0.50070
O          1.71855        0.19567        1.72202
C          2.90719       -0.45955        1.87799
C          3.09637       -1.15678        3.06684
C          4.28265       -1.86383        3.28174
C          5.28109       -1.88484        2.30447
N          6.46342       -2.64403        2.40860
C          6.81373       -3.64836        3.25119
O          8.00306       -3.78051        3.55287
N          5.90779       -4.51339        3.77201
C          4.68578       -4.99077        3.26265
C          3.82061       -5.63082        4.15263
C          2.54124       -6.01093        3.73659
C          2.11954       -5.77277        2.42753
O          0.82071       -6.10650        2.16874
C          0.18003       -5.49173        1.04856
C         -0.10912       -4.01665        1.28945
C          3.02096       -5.23650        1.51195
C          4.30163       -4.85573        1.92754
C          5.12154       -1.10022        1.15660
C          3.93540       -0.39202        0.94052
H          0.27134        1.87971        0.27015
H          0.31259        0.93573       -1.23722
H          1.80668        1.60941       -0.54484
H          0.06444       -0.53868        0.77027
H          1.55573       -0.88738       -0.09853
H          2.31477       -1.16853        3.82141
H          4.40168       -2.39260        4.22188
H          7.26175       -2.28756        1.89862
H          6.26721       -4.99442        4.58689
H          4.10164       -5.78612        5.19049
H          1.85481       -6.46084        4.44942
H          0.73268       -5.66138        0.11873
H         -0.77810       -6.00948        0.92557
H          0.81214       -3.43117        1.36592
H         -0.70609       -3.60299        0.47138
H         -0.65327       -3.87799        2.22932
H          2.76022       -5.08465        0.47107
H          4.97976       -4.44215        1.18797
H          5.89926       -1.06111        0.39850
H          3.82547        0.20308        0.03957
