15

O          1.04178        0.14516        0.49115
C          2.22380        0.09419        0.19139
O          2.99964       -0.96279        0.49489
C          2.91634        1.25249       -0.43100
C          2.38457        2.51919       -0.12805
C          2.95669        3.66480       -0.66940
F          2.44447        4.86373       -0.36432
C          4.05073        3.56781       -1.51739
F          4.60245        4.67183       -2.03717
C          4.58411        2.32501       -1.83889
C          4.01623        1.16386       -1.30007
Cl         4.72424       -0.33789       -1.77607
H          3.91812       -0.93278        0.16342
H          1.52340        2.62183        0.52995
H          5.43492        2.27710       -2.51327
