52

C          0.93957        0.10081        0.04307
C          0.20746       -0.94794       -0.34807
C         -1.23552       -0.93508       -0.37342
C         -1.95878       -2.00369       -0.74043
C         -3.46067       -2.02029       -0.83183
C         -3.89845       -2.28044       -2.22866
C         -4.01493       -3.42107       -2.92743
C         -3.78472       -4.80683       -2.42901
C         -4.37765       -3.19935       -4.36990
O         -3.34398       -3.66547       -5.26356
C         -2.13551       -3.04176       -5.27970
O         -1.80821       -2.08780       -4.58945
C         -1.25892       -3.60980       -6.32864
C          0.25293       -3.62589       -6.27035
C          1.01989       -3.07105       -5.14213
C          2.24966       -2.51754       -5.19295
C          2.91846       -1.97169       -3.96122
C          3.03431       -2.38256       -6.46810
C         -0.51851       -4.92869       -6.13621
C         -0.62688       -5.64707       -4.81267
C         -0.47838       -5.87224       -7.31537
C         -4.70248       -1.71311       -4.49748
C         -4.31196       -1.19364       -3.14377
O         -4.40943       -0.02345       -2.80170
H          0.48614        1.02911        0.37530
H          2.02352        0.04947        0.03291
H          0.71405       -1.85193       -0.67926
H         -1.73802       -0.00736       -0.10597
H         -1.45238       -2.92496       -1.02100
H         -3.84251       -2.80312       -0.16604
H         -3.89066       -1.08173       -0.46277
H         -4.69525       -5.40337       -2.54689
H         -2.98129       -5.29189       -2.98796
H         -3.51189       -4.82765       -1.37000
H         -5.27363       -3.78009       -4.61902
H         -1.66911       -3.42292       -7.31839
H          0.72882       -3.44464       -7.23221
H          0.53446       -3.08647       -4.16664
H          3.87639       -2.47663       -3.79700
H          3.10646       -0.89912       -4.07615
H          2.31215       -2.11058       -3.06035
H          3.19932       -3.36121       -6.93006
H          2.50932       -1.73247       -7.17595
H          4.01838       -1.93751       -6.28649
H         -0.66808       -4.97370       -3.95223
H         -1.53680       -6.25684       -4.79535
H          0.22959       -6.31486       -4.67175
H         -1.46450       -6.32057       -7.47351
H         -0.18750       -5.36277       -8.24039
H          0.24326       -6.67714       -7.14047
H         -5.77940       -1.55944       -4.62371
H         -4.15531       -1.20287       -5.29285
