25

O          1.11376       -0.77453        0.34733
C          2.22516       -0.34210        0.11164
O          2.90607        0.50803        0.91206
C          3.02906       -0.71493       -1.06810
C          4.12885       -1.56095       -0.85302
C          4.91990       -1.95726       -1.92835
C          4.61213       -1.51405       -3.21202
C          3.51228       -0.67592       -3.42269
C          2.69545       -0.25719       -2.35572
C          1.55461        0.63082       -2.62725
C          0.45987        0.17529       -3.38000
C         -0.62077        1.01594       -3.65725
C         -0.62287        2.32619       -3.18599
C          0.45438        2.79647       -2.43891
C          1.53644        1.95608       -2.16385
H          3.77363        0.77831        0.55493
H          4.35434       -1.92653        0.14686
H          5.76757       -2.61975       -1.76937
H          5.22347       -1.82536       -4.05631
H          3.29270       -0.34290       -4.43668
H          0.43661       -0.84952       -3.74559
H         -1.46360        0.64343       -4.23348
H         -1.46695        2.97821       -3.39470
H          0.45091        3.81699       -2.06493
H          2.36652        2.34900       -1.58207
