46

C          0.71957       -0.66013        1.89189
C          0.35101        0.30248        3.00620
C          1.02579        1.68102        2.97618
C          0.58492        2.74796        1.95787
C         -0.91007        2.82051        1.58162
C         -1.80791        3.11674        2.80310
C         -1.45246        4.36460        3.59921
C         -1.14941        3.84300        0.43536
O         -0.69321        3.30335       -0.83321
C          0.19863        4.02705       -1.56295
O          0.64293        5.12288       -1.22309
C          0.65153        3.32084       -2.85957
O          0.00013        2.12092       -3.25624
C          0.71755        0.95096       -3.23595
C          0.64521        0.17202       -4.39661
C          1.10218       -1.15301       -4.40391
C          1.59779       -1.71902       -3.23622
Cl         2.04198       -3.37906       -3.18610
C          1.71159       -0.94629       -2.09035
C          1.31292        0.40272       -2.09356
C          1.44797        1.14163       -0.81561
H          0.17087       -0.43434        0.97643
H          0.44282       -1.68242        2.17325
H          1.79464       -0.65816        1.69169
H         -0.73701        0.38960        3.05445
H          0.65532       -0.17591        3.94583
H          0.89321        2.11717        3.97398
H          2.10947        1.53990        2.86383
H          0.90800        3.72500        2.34178
H          1.18968        2.63812        1.06185
H         -1.20621        1.83946        1.18894
H         -2.85059        3.19492        2.47215
H         -1.77982        2.26485        3.49074
H         -1.51874        5.26595        2.98465
H         -2.14587        4.47528        4.43966
H         -0.44627        4.30294        4.02389
H         -2.22497        4.01617        0.31548
H         -0.68477        4.80689        0.66885
H          0.44312        4.04213       -3.66009
H          1.74141        3.20134       -2.83097
H          0.20117        0.58438       -5.29889
H          1.02823       -1.74919       -5.30847
H          2.07954       -1.39930       -1.17099
H          0.45446        1.22970       -0.37926
H          2.10110        0.62458       -0.10972
H          1.91242        2.11648       -0.95918
