29

C          1.00127        0.05022        0.15501
C          0.66643        1.49969       -0.16188
C          1.15407        1.94924       -1.54190
C          0.55296        1.19385       -2.73244
C         -0.97897        1.22021       -2.82437
C         -1.61433        2.62330       -2.92780
C         -1.16389        3.34475       -4.20368
C         -3.15605        2.55237       -2.90867
C         -3.72777        2.07753       -1.57933
H          0.47383       -0.63932       -0.51046
H          0.70486       -0.18828        1.18157
H          2.07643       -0.13308        0.06249
H         -0.41341        1.65619       -0.06593
H          1.13843        2.13777        0.59506
H          0.95490        3.02165       -1.65172
H          2.24541        1.84222       -1.58262
H          0.98457        1.59697       -3.65588
H          0.87733        0.14673       -2.69498
H         -1.27691        0.62874       -3.69996
H         -1.38146        0.68835       -1.95634
H         -1.29954        3.22932       -2.07032
H         -1.41193        2.76166       -5.09702
H         -1.65273        4.32115       -4.29244
H         -0.08503        3.52597       -4.20172
H         -3.56379        3.55142       -3.10871
H         -3.51545        1.89881       -3.71249
H         -3.33840        2.67377       -0.74816
H         -4.81814        2.17676       -1.58440
H         -3.49587        1.02568       -1.39102
