27

O          1.00867       -0.30478       -0.09109
N          2.19316        0.02162        0.05792
O          2.87419       -0.16441        1.07584
C          2.87916        0.58668       -1.08637
C          3.96181       -0.11655       -1.61734
C          4.61227        0.42861       -2.72985
N          5.74694       -0.30342       -3.25620
O          5.49362       -1.33939       -3.88399
O          6.87177        0.13648       -2.99082
C          4.21340        1.64069       -3.32755
C          4.86428        2.20953       -4.51591
C          4.71059        1.61151       -5.77696
C          5.32628        2.15744       -6.90546
C          6.09981        3.30982       -6.78968
C          6.25959        3.91740       -5.54666
C          5.64549        3.37165       -4.41719
C          3.12244        2.32164       -2.74767
C          2.45934        1.80176       -1.63121
O          1.42773        2.49607       -1.07232
H          4.28969       -1.05720       -1.17941
H          4.10944        0.71134       -5.89510
H          5.20478        1.68007       -7.87485
H          6.58266        3.73142       -7.66782
H          6.86904        4.81307       -5.45475
H          5.79422        3.85649       -3.45417
H          2.79686        3.26445       -3.18558
H          1.21337        3.28038       -1.60709
