22

C         -0.03572       -0.23896        0.06319
C          0.48860        0.71510       -0.99424
C          1.15386        0.00575       -2.15742
O          0.47635       -0.61985       -2.97816
N          2.49103        0.15199       -2.39331
C          3.54165        0.54791       -1.55404
C          3.53546        0.33622       -0.17598
C          4.62778        0.72108        0.60720
C          5.74001        1.32123        0.01554
Cl         7.04605        1.78606        1.04419
C          5.76523        1.51106       -1.36905
Cl         7.10406        2.24657       -2.17684
C          4.67687        1.10444       -2.15138
H         -0.13623       -1.26329       -0.30699
H         -1.01392        0.09715        0.42260
H          0.62652       -0.25807        0.93385
H         -0.35860        1.26177       -1.42996
H          1.12824        1.48744       -0.55934
H          2.73169       -0.09275       -3.34852
H          2.72065       -0.18595        0.31094
H          4.60749        0.53447        1.67882
H          4.70750        1.26025       -3.22754
