12

O          2.32094        0.85453       -0.01209
C          1.24153        0.27470       -0.00686
C          1.17274       -1.20071       -0.01060
C         -0.02670       -1.78665       -0.00170
N         -1.17139       -1.04044        0.01002
C         -1.18433        0.32914        0.01254
O         -2.23064        0.96837        0.02296
N          0.04265        0.93040        0.00292
H          2.10556       -1.74765       -0.02004
H         -0.14555       -2.86535       -0.00330
H         -2.08104       -1.48830        0.01726
H          0.06222        1.93762        0.00560
