14

N          1.25101       -0.04810        0.06593
C          2.41073       -0.01925        0.06721
C          3.84419        0.01209        0.06909
C          4.51708        1.23857        0.06890
C          5.91577        1.26888        0.07134
I          6.85429        3.14008        0.07046
C          6.64595        0.07525        0.07427
O          8.01410        0.12480        0.07749
C          5.96748       -1.14951        0.07407
I          7.00405       -2.96590        0.07782
C          4.57002       -1.18394        0.07139
H          3.94663        2.16635        0.06695
H          8.35502       -0.78751        0.08079
H          4.04014       -2.13541        0.07122
