18

N          0.94912        0.07600        0.16988
C          0.25841       -0.09355        1.33799
O         -0.91854       -0.43195        1.32811
C          1.01910        0.09070        2.60697
C          0.57079       -0.64829        3.71497
C          1.25933       -0.59823        4.92585
C          2.40751        0.17938        5.03316
C          2.84807        0.93183        3.94120
C          2.13023        0.95183        2.73530
N          2.67161        1.68106        1.65269
H          0.48850       -0.21633       -0.68137
H          1.96384        0.10972        0.18720
H         -0.30854       -1.28404        3.62600
H          0.91138       -1.18220        5.77422
H          2.96591        0.19868        5.96590
H          3.75733        1.51915        4.04650
H          1.93944        1.99076        1.01095
H          3.24120        2.46817        1.95412
