19

C          0.77335       -0.22329        0.28443
O          0.37553       -1.29620       -0.55881
C          1.08558       -1.33117       -1.79587
C          0.57345       -0.31370       -2.78490
C          1.17347        0.95065       -2.88494
C          0.69106        1.89403       -3.79349
C         -0.38811        1.58210       -4.61641
C         -0.99353        0.32927       -4.52617
C         -0.52013       -0.61093       -3.60880
H          0.33879       -0.38605        1.27449
H          0.39610        0.72883       -0.09856
H          1.86240       -0.18504        0.38862
H          2.16431       -1.22187       -1.62999
H          0.94655       -2.33432       -2.21660
H          2.01598        1.20953       -2.24896
H          1.15778        2.87387       -3.85706
H         -0.76135        2.31571       -5.32607
H         -1.83644        0.08589       -5.16682
H         -1.00886       -1.58101       -3.54009
