43

O          2.09221        0.03116       -0.06787
C          0.73259       -0.04054       -0.01251
C          0.02166        1.15191        0.01307
C         -1.37402        1.12223        0.07743
C         -2.07008       -0.09360        0.11182
N         -3.47741       -0.04060        0.20778
N         -4.03685       -1.06432       -0.24164
C         -5.44156       -0.93209       -0.16294
C         -6.08318       -0.00881       -0.99524
C         -7.46845        0.12683       -0.97410
C         -8.26407       -0.67010       -0.13374
N         -9.67909       -0.54483       -0.07678
N        -10.14938        0.25285       -0.91347
C        -11.54626        0.39490       -0.79459
C        -12.29986        0.53552       -1.96613
C        -13.68143        0.73750       -1.91156
C        -14.32574        0.80673       -0.67810
C        -13.59044        0.67601        0.49834
C        -12.20846        0.47685        0.43955
C         -7.62945       -1.62686        0.70678
C         -8.36804       -2.46952        1.56996
C         -7.74741       -3.40634        2.39741
C         -6.36623       -3.52565        2.38640
C         -5.60918       -2.71130        1.54442
C         -6.21109       -1.75705        0.69327
C         -1.32619       -1.28537        0.08848
C          0.07126       -1.26257        0.02282
H          2.45272       -0.87074       -0.06359
H          0.54866        2.10149       -0.01231
H         -1.92703        2.05806        0.10294
H         -5.49270        0.61368       -1.66314
H         -7.92282        0.86810       -1.62661
H        -11.80166        0.49132       -2.93143
H        -14.25082        0.84643       -2.83097
H        -15.39981        0.96865       -0.63339
H        -14.08876        0.73701        1.46232
H        -11.64287        0.39520        1.36418
H         -9.45491       -2.40305        1.60256
H         -8.34637       -4.03834        3.04794
H         -5.87448       -4.24944        3.03091
H         -4.52614       -2.82365        1.56031
H         -1.83532       -2.24498        0.12521
H          0.61633       -2.20080        0.00423
