41

C          1.11777       -0.11417       -0.00035
N          0.53230       -0.70752       -1.19151
C         -0.92693       -0.73839       -1.16496
C         -1.63558        0.62022       -1.13994
C         -1.24806        1.62417       -2.23785
C         -1.56003        1.15291       -3.68496
C         -0.34064        0.61722       -4.42883
C         -0.28706       -0.75310       -4.75214
C          0.82105       -1.29997       -5.39839
C          1.89314       -0.48624       -5.74084
C          1.85005        0.87624       -5.44693
C          0.73514        1.44477       -4.80809
C          0.78159        2.88908       -4.53807
C         -0.25098        3.74527       -4.57306
C         -1.65069        3.42552       -4.88841
C         -2.39179        4.39485       -5.58501
C         -3.73343        4.18332       -5.90387
C         -4.35668        3.00189       -5.52167
C         -3.63950        2.03558       -4.81715
C         -2.28349        2.23291       -4.48682
H          0.77779       -0.62396        0.90683
H          0.89131        0.95298        0.08124
H          2.20660       -0.21704       -0.04398
H          0.86033       -0.21282       -2.02237
H         -1.26925       -1.30512       -2.03660
H         -1.25855       -1.32434       -0.29831
H         -2.71763        0.44327       -1.19293
H         -1.46221        1.09673       -0.16676
H         -1.81549        2.53917       -2.01854
H         -0.19318        1.89285       -2.11465
H         -2.26961        0.31821       -3.59839
H         -1.11145       -1.41336       -4.49137
H          0.84623       -2.36165       -5.62944
H          2.75978       -0.90785       -6.24262
H          2.69383        1.49859       -5.73766
H          1.76940        3.28893       -4.31750
H         -0.04885        4.79682       -4.37863
H         -1.92205        5.32488       -5.89823
H         -4.28780        4.94041       -6.45172
H         -5.40108        2.83158       -5.76917
H         -4.15003        1.12106       -4.52273
