33

C          0.29585        0.45325       -0.30328
C          0.06412        0.12045        1.16334
C          0.82681        0.99228        2.18218
C          0.46708        2.47403        1.97774
O          0.37152        0.62487        3.49114
C          2.37020        0.84794        2.17001
C          2.99106       -0.45104        2.71945
C          2.87556       -1.72459        1.87485
C          3.39536       -1.61218        0.43105
C          4.92240       -1.57501        0.37773
C          2.86652       -2.77318       -0.41318
H         -0.23790        1.36606       -0.58498
H         -0.08494       -0.35723       -0.93365
H          1.35105        0.59423       -0.54127
H         -1.01413        0.20120        1.36004
H          0.27539       -0.93573        1.33548
H         -0.61971        2.61653        1.97659
H          0.85537        3.08796        2.79851
H          0.86883        2.86535        1.03752
H         -0.58719        0.78667        3.53361
H          2.77544        1.08366        1.18138
H          2.76355        1.63601        2.83012
H          4.05822       -0.25671        2.88861
H          2.57719       -0.65857        3.71403
H          3.43098       -2.52103        2.38921
H          1.83796       -2.06620        1.88128
H          3.02630       -0.69419       -0.02926
H          5.35701       -2.49110        0.79165
H          5.26891       -1.47673       -0.65685
H          5.31924       -0.72418        0.93962
H          1.77084       -2.77801       -0.41928
H          3.20058       -2.68040       -1.45209
H          3.20986       -3.73839       -0.02760
