53

C         -0.86270       -1.09933        1.06864
C          0.04328       -2.31094        0.89532
O          1.26119       -1.96122        1.53728
C          2.37985       -2.25113        0.88708
N          2.77798       -3.44242        0.51690
C          4.14004       -3.30041        0.36140
C          5.10143       -4.29062        0.09305
C          6.45815       -3.96110        0.16044
C          6.85278       -2.67140        0.51253
C          5.91062       -1.65097        0.75394
C          6.36282       -0.37238        1.33667
O          5.73074        0.34258        2.09703
O          7.61775       -0.05607        0.97932
C          4.54860       -1.98148        0.60951
N          3.34962       -1.30393        0.67137
C          3.06498        0.11856        0.54715
C          2.65058        0.55417       -0.85398
C          1.60532       -0.06115       -1.55090
C          1.16461        0.41350       -2.78955
C          1.74440        1.54053       -3.38085
C          1.25478        2.02976       -4.68702
C          2.15381        2.04619       -5.77367
C          1.73755        2.38739       -7.06221
C          0.40971        2.71915       -7.29696
C         -0.49820        2.72351       -6.23972
C         -0.09523        2.39626       -4.93022
C         -1.12211        2.44343       -3.88947
N         -2.38706        2.07718       -3.98990
N         -2.96215        2.31483       -2.76511
N         -2.08554        2.84262       -1.92421
N         -0.94655        2.93310       -2.62341
C          2.80797        2.15267       -2.70049
C          3.25087        1.67027       -1.45588
H         -1.24313       -1.05965        2.09519
H         -1.71063       -1.12514        0.38128
H         -0.30812       -0.16567        0.91318
H         -0.39317       -3.18854        1.38207
H          0.17548       -2.54098       -0.16765
H          4.78807       -5.30963       -0.11076
H          7.20971       -4.73056       -0.00342
H          7.91528       -2.47056        0.64552
H          7.80509        0.76609        1.47983
H          2.27116        0.37354        1.25804
H          3.94473        0.68080        0.84061
H          1.09883       -0.92770       -1.15116
H          0.35030       -0.11352       -3.28802
H          3.19120        1.74831       -5.62656
H          2.44742        2.36938       -7.88561
H          0.07532        2.96600       -8.30171
H         -1.53799        2.98215       -6.44129
H         -0.11869        3.32092       -2.19088
H          3.30492        3.02039       -3.13179
H          4.07098        2.18589       -0.95817
