15

Br         1.02479        0.15560       -0.18045
C          2.95835       -0.01457       -0.08339
C          3.50209       -0.37780       -1.43268
C          3.46608       -1.70613       -1.88329
C          3.96837       -2.04236       -3.14148
C          4.51145       -1.05658       -3.96241
C          4.54897        0.26719       -3.52853
C          4.04422        0.60615       -2.27174
H          3.34523        0.94499        0.27215
H          3.18608       -0.78072        0.66347
H          3.03902       -2.48707       -1.25756
H          3.93195       -3.07390       -3.48238
H          4.90119       -1.31885       -4.94243
H          4.96831        1.03702       -4.17098
H          4.07556        1.64604       -1.95318
