14

N          1.02527       -0.21104        0.05315
C          0.31516       -1.18881       -0.60330
O         -0.89349       -1.06502       -0.75894
C          1.07860       -2.35571       -1.12958
C          2.17384       -2.86163       -0.44218
N          2.90273       -3.91284       -0.89864
C          2.47337       -4.44617       -2.06624
C          1.37331       -3.95142       -2.74865
N          0.65419       -2.89733       -2.30152
H          0.49602        0.62600        0.27004
H          2.02419       -0.10263       -0.05858
H          2.49762       -2.45278        0.50810
H          3.03995       -5.29109       -2.44205
H          1.03882       -4.39193       -3.68141
