22

C          1.32155        0.12373        0.05000
C          0.64115        1.45823        0.19281
O          0.07993        1.98969       -0.76730
C          0.69534        2.14586        1.52661
C          0.23222        1.32220        2.69716
O          1.02923        0.91833        3.54353
C         -1.21830        1.03479        2.87503
C         -1.72389        1.00541        4.18155
C         -3.06973        0.71200        4.40911
C         -3.91148        0.42753        3.33559
C         -3.41216        0.44691        2.03473
C         -2.07020        0.75788        1.80065
H          1.11784       -0.27868       -0.94700
H          0.92833       -0.58085        0.78630
H          2.39950        0.24385        0.17373
H          1.73479        2.44824        1.70259
H          0.10501        3.06830        1.49273
H         -1.07118        1.21280        5.02774
H         -3.45889        0.69747        5.42422
H         -4.95660        0.18476        3.51219
H         -4.06694        0.21196        1.19829
H         -1.72614        0.74544        0.77260
