20

N          0.76002       -0.17763        0.46832
C          0.12377        0.96062        0.86428
O         -1.10153        0.99945        0.91474
C          0.93663        2.11215        1.34450
C          0.42044        2.70004        2.52106
C          1.03872        3.79427        3.12059
C          2.18731        4.32247        2.55249
C          2.71256        3.75739        1.38612
C          2.09596        2.65478        0.75216
C          2.69955        2.12389       -0.51273
N          3.63380        2.87923       -1.17006
O          2.41390        1.03189       -0.98744
H          0.15584       -0.86556        0.03861
H          1.66369       -0.07734        0.00662
H         -0.47985        2.28999        2.98035
H          0.62328        4.22466        4.02857
H          2.67986        5.17428        3.01633
H          3.62639        4.19858        1.00098
H          3.99030        2.49481       -2.03693
H          3.87770        3.83322       -0.95613
