20

C          0.96686       -0.04862        0.05067
C          0.45583       -0.21876        1.47430
C          0.88806        0.91936        2.41288
C          0.41655        2.32820        2.01615
C         -1.08605        2.48793        1.82373
C          0.51874        0.61802        3.85003
O          1.24715        0.77046        4.81795
O         -0.74772        0.19705        4.01693
H          0.52709        0.82952       -0.43110
H          0.70214       -0.92408       -0.55089
H          2.05634        0.05603        0.03377
H         -0.63493       -0.32294        1.45541
H          0.84038       -1.16854        1.86845
H          1.98767        0.93510        2.40207
H          0.74179        3.04627        2.77979
H          0.91736        2.62534        1.08702
H         -1.62867        2.32901        2.75986
H         -1.30989        3.50474        1.48418
H         -1.47744        1.79753        1.07174
H         -0.83572        0.09002        4.98722
