39

C          1.57811       -0.70101        0.10591
N          0.59141       -1.11270       -0.91971
C         -0.65193       -0.39381       -0.57702
P          1.18474       -0.82547       -2.57315
O          2.58125       -1.38937       -2.25187
N          0.11380       -2.07558       -3.09941
C          0.58364       -3.34418       -3.63687
C         -1.32869       -2.09083       -2.94545
N          1.77808       -0.53825       -4.22659
N          1.44752        0.60252       -4.93777
C          2.13221        0.41010       -6.08221
C          2.25033        1.29970       -7.22212
C          3.26469        2.26627       -7.23905
C          3.62197        2.88773       -8.43857
C          2.96780        2.54854       -9.62337
C          1.94488        1.60053       -9.61057
C          1.58864        0.97422       -8.41411
N          2.87161       -0.73617       -6.14575
C          2.69599       -1.28371       -4.99007
N          3.33617       -2.39968       -4.56800
H          1.20351       -0.90251        1.11601
H          1.79692        0.37116        0.01932
H          2.52009       -1.24969        0.02848
H         -0.91607        0.34268       -1.34171
H         -1.47218       -1.10828       -0.46214
H         -0.60436        0.14905        0.37540
H          1.47084       -3.69911       -3.10930
H         -0.16379       -4.14239       -3.54972
H          0.79466       -3.24891       -4.70658
H         -1.60276       -2.66149       -2.04908
H         -1.75028       -1.08631       -2.87506
H         -1.83140       -2.56931       -3.79360
H          3.83531        2.47515       -6.33711
H          4.44408        3.59873       -8.45748
H          3.27655        3.00041      -10.56285
H          1.45960        1.31131      -10.53925
H          0.85033        0.17551       -8.42670
H          4.17049       -2.64996       -5.08789
H          3.45658       -2.47820       -3.55270
