32

C          0.73001        0.03279       -0.05448
C          0.11584       -0.80159        0.80166
C         -1.36373       -1.01292        0.81648
C          0.96735       -1.52951        1.78060
O          2.12024       -1.21887        2.03996
O          0.30451       -2.60539        2.26983
C          1.04972       -3.46547        3.15701
C          1.81740       -4.54356        2.36711
N          3.04614       -4.01024        1.78019
C          3.79568       -4.87182        0.85775
C          2.91840       -5.56599       -0.19692
C          4.80263       -3.96351        0.12429
C          4.57644       -5.92197        1.66165
H          0.17458        0.59788       -0.79530
H          1.80887        0.17188       -0.04010
H         -1.61239       -2.03938        0.52883
H         -1.76959       -0.81814        1.81456
H         -1.87479       -0.34091        0.11839
H          1.70227       -2.88889        3.82378
H          0.30583       -3.95903        3.79247
H          2.07200       -5.35959        3.05115
H          1.14489       -4.92669        1.59358
H          2.87787       -3.08693        1.37389
H          2.28923       -4.84430       -0.73036
H          3.53628       -6.07844       -0.94379
H          2.26576       -6.32480        0.24864
H          5.45680       -3.43614        0.82870
H          5.44370       -4.54456       -0.54862
H          4.28871       -3.20803       -0.48299
H          5.21804       -5.44999        2.41543
H          3.90794       -6.61818        2.17945
H          5.22450       -6.51525        1.00614
