8

C         -1.27556       -0.32282        0.00120
C         -0.15793       -1.17563        0.00200
N          0.99167       -0.49644       -0.00192
O          0.62501        0.84116       -0.00588
C         -0.72873        0.93369       -0.00424
H         -2.32249       -0.58347        0.00384
H         -0.12573       -2.25604        0.00519
H         -1.12825        1.93680       -0.00739
