24

O          1.28136       -0.20785       -0.31337
N          2.35045       -0.07588        0.29661
O          2.86893        0.99700        0.63146
C          3.04245       -1.28018        0.62750
C          2.85717       -2.57929        0.22471
C          3.89979       -3.30900        0.84830
C          4.63081       -2.41666        1.61978
C          5.78004       -2.68728        2.41891
N          6.75842       -3.50227        2.08697
C          7.63681       -3.46286        3.14064
C          8.86952       -4.11396        3.30458
C          9.56071       -3.94567        4.51108
C          9.02749       -3.15076        5.52313
F          9.70152       -3.02859        6.67498
C          7.81496       -2.47301        5.37780
C          7.15448       -2.64514        4.15971
N          5.98858       -2.12912        3.65272
O          4.07690       -1.16530        1.50225
H          2.09364       -2.94711       -0.44716
H          4.10767       -4.36818        0.76109
H          9.26876       -4.73423        2.50955
H         10.51498       -4.43987        4.66722
H          7.42317       -1.85496        6.17629
H          5.36785       -1.47928        4.11309
