29

C          1.05751        0.14967       -0.04975
S          0.50635       -0.49176       -1.65143
C          0.97230        0.87119       -2.69957
C          1.92502        0.67179       -3.70003
C          2.26761        1.71426       -4.56707
C          1.65125        2.96905       -4.45603
C          2.00797        4.00906       -5.46520
O          2.78993        3.75447       -6.37706
C          1.36687        5.33595       -5.38542
N          1.48646        6.20128       -4.32309
C          0.77456        7.37145       -4.60646
O          0.65989        8.35672       -3.90460
N          0.22174        7.15111       -5.87391
C          0.60847        5.91116       -6.33491
C          0.18109        5.41735       -7.66659
C          0.68975        3.16410       -3.45594
C          0.35709        2.12067       -2.58223
H          0.85938       -0.60045        0.72066
H          0.51922        1.06390        0.21306
H          2.13182        0.35183       -0.07012
H          2.40046       -0.29894       -3.82455
H          3.00430        1.53018       -5.34809
H          2.04351        6.07228       -3.49304
H         -0.34281        7.83110       -6.36122
H         -0.91151        5.38208       -7.72699
H          0.54940        6.07847       -8.45717
H          0.55582        4.40965       -7.86986
H          0.15925        4.10554       -3.34492
H         -0.40977        2.28755       -1.82868
