42

C          1.09293        0.07245       -0.21196
O          0.42731       -1.14834        0.08311
N          0.78752       -2.10459       -0.86781
C          0.26537       -3.28158       -0.64832
C         -0.64006       -3.69963        0.53575
O         -1.22938       -4.76445        0.53794
O         -0.66025       -2.80636        1.54227
C         -1.48596       -3.16613        2.64873
C          0.58088       -4.34711       -1.64397
C         -0.47533       -4.99986       -2.29793
C         -0.21510       -6.01745       -3.21731
C          1.09771       -6.34103       -3.54356
C          2.15193       -5.68383       -2.91195
C          1.91061       -4.72672       -1.90549
C          3.07276       -4.26559       -1.05258
O          3.89857       -5.40776       -0.75367
C          3.84961       -5.82920        0.54912
C          4.97076       -5.53093        1.32897
C          5.10062       -6.06387        2.61158
C          4.11086       -6.89891        3.11989
C          2.99104       -7.19750        2.34711
C          2.85158       -6.68393        1.04711
C          1.65117       -7.11158        0.25894
H          0.83457        0.80064        0.56180
H          0.76464        0.45715       -1.18194
H          2.17762       -0.07296       -0.20839
H         -2.46972       -3.51920        2.32171
H         -0.98200       -3.92832        3.24952
H         -1.63375       -2.27500        3.26541
H         -1.50918       -4.75221       -2.06860
H         -1.03716       -6.56368       -3.67273
H          1.30619       -7.13434       -4.25731
H          3.17368       -5.98496       -3.14225
H          3.67851       -3.56418       -1.63942
H          2.76666       -3.75095       -0.13547
H          5.76354       -4.90925        0.92221
H          5.98536       -5.84892        3.20381
H          4.21605       -7.33736        4.10843
H          2.23445       -7.86652        2.75309
H          1.94689       -7.55314       -0.69552
H          1.05903       -7.86319        0.79221
H          0.98710       -6.26345        0.11093
