21

O          1.65073        1.63244        0.70520
C          2.53577        0.86656        0.34846
O          3.06841       -0.04742        1.19205
C          3.13878        0.85605       -1.05031
O          2.17895        0.43310       -2.01742
C          2.62652       -0.61734       -2.76551
C          3.33154       -0.36207       -3.94088
C          3.77878       -1.42855       -4.73025
C          3.51455       -2.75083       -4.35702
C          2.78878       -3.01613       -3.19746
C          2.33974       -1.93978       -2.42800
N          1.63421       -2.22312       -1.20516
O          2.33923       -2.55726       -0.24070
O          0.40451       -2.10799       -1.21117
H          3.64379       -0.72457        0.78460
H          3.43034        1.88758       -1.28063
H          4.06117        0.26095       -1.05926
H          3.53000        0.66054       -4.25303
H          4.33136       -1.22857       -5.64671
H          3.86988       -3.57198       -4.97651
H          2.58029       -4.04191       -2.90329
