23

Cl        -2.64663        0.92631       -0.08303
C         -1.20512       -0.00900       -0.00742
C         -1.27656       -1.36231        0.31726
C         -0.10782       -2.12624        0.39141
C          1.13497       -1.53849        0.12018
O          2.33658       -2.21205        0.21386
C          2.34373       -3.57730        0.08430
C          1.96704       -4.20506       -1.10106
C          2.03309       -5.59921       -1.19629
Cl         1.52068       -6.30981       -2.68878
C          2.49680       -6.36793       -0.11580
Cl         2.57043       -8.09789       -0.23098
C          2.90227       -5.71449        1.05863
Cl         3.50155       -6.56740        2.43973
C          2.83294       -4.32191        1.15392
C          1.19059       -0.17121       -0.19418
Cl         2.69732        0.61627       -0.50631
C          0.02373        0.59356       -0.26083
H         -2.23789       -1.82743        0.52423
H         -0.19253       -3.17130        0.67563
H          1.62738       -3.61218       -1.94701
H          3.15653       -3.81285        2.05916
H          0.07449        1.65154       -0.50276
