24

C          0.81304       -0.02813       -0.44981
C          0.42645       -1.48253       -0.22528
C          1.15128       -2.13259        0.95223
O          0.69874       -1.60733        2.20948
C          1.43914       -0.60420        2.73752
O          2.41990       -0.06786        2.24876
C          0.82117       -0.17447        4.00368
C          0.52470        1.18030        4.18134
C         -0.04019        1.61089        5.38176
C         -0.28715        0.69360        6.40504
C          0.02192       -0.65706        6.23004
C          0.57235       -1.09690        5.02551
H          0.46902        0.60776        0.37112
H          0.35482        0.34621       -1.37083
H          1.89809        0.08069       -0.54600
H         -0.65701       -1.53424       -0.06820
H          0.65728       -2.04793       -1.13542
H          0.91031       -3.20142        0.96484
H          2.24015       -2.05826        0.84890
H          0.72833        1.89449        3.38693
H         -0.28234        2.66142        5.52239
H         -0.71746        1.03372        7.34422
H         -0.16199       -1.36446        7.03498
H          0.81993       -2.14683        4.89329
