34

C          0.66515        0.08581       -0.03809
C          0.34960       -1.18299        0.73239
O          0.93937       -1.14487        2.04843
C          2.24976       -1.29708        2.32288
O          3.04171       -1.64085        1.29993
N          2.68305       -1.10316        3.51312
C          4.14118       -1.24859        3.78352
C          4.61255       -2.63218        3.36705
O          5.50573       -2.83917        2.54698
C          4.91320       -0.07748        3.13803
O          4.18545        1.14840        3.38635
C          6.36935        0.09854        3.65350
O          7.16978       -1.07591        3.49792
C          7.04729        1.31582        2.95922
O          6.43153        2.54352        3.36485
C          8.55203        1.41055        3.24961
O          9.27647        0.31655        2.69539
H          0.31544        0.96493        0.51291
H          0.18401        0.07145       -1.02020
H          1.74243        0.21213       -0.18197
H         -0.73308       -1.25933        0.87658
H          0.66013       -2.08597        0.19707
H          2.57766       -1.80504        0.47218
H          4.25907       -1.19241        4.87253
H          4.10454       -3.47272        3.87104
H          4.94694       -0.20922        2.05096
H          3.25368        0.88165        3.53898
H          6.32367        0.31577        4.72831
H          6.80221       -1.63201        2.77452
H          6.92089        1.21482        1.87410
H          5.46165        2.38796        3.34822
H          8.95881        2.33388        2.82317
H          8.74154        1.45014        4.32777
H          8.84792       -0.48992        3.05304
