23

C          0.91949       -0.02163       -0.34165
O          0.42424       -1.33135       -0.09471
C          1.31296       -2.31628        0.22776
C          0.86687       -3.60492       -0.08826
C          1.64129       -4.74840        0.19331
C          1.02782       -6.03843       -0.18645
O          0.26021       -6.19766       -1.11860
O          1.28885       -7.02713        0.67850
C          2.89925       -4.59650        0.78986
C          3.82781       -5.72696        1.03250
O          3.94296       -6.74753        0.37794
O          4.63815       -5.47963        2.08059
C          3.34426       -3.30094        1.10946
C          2.55067       -2.18201        0.85171
O          3.05809       -0.99323        1.28751
H          0.93202        0.54849        0.59191
H          0.21627        0.48009       -1.01391
H          1.90125       -0.01691       -0.82521
H         -0.10652       -3.71946       -0.56639
H          0.88938       -7.81939        0.25980
H          5.23397       -6.25687        2.12131
H          4.31763       -3.15080        1.57313
H          2.32046       -0.50089        1.68443
