17

O          0.88172        0.10086        0.06550
C          2.10567        0.06408        0.01446
C          2.81219       -1.21975       -0.01882
C          4.14459       -1.31552       -0.09893
Br         4.94546       -3.00910       -0.12043
C          4.94880       -0.08782       -0.16442
C          6.34547       -0.05588       -0.28513
C          7.03517        1.16227       -0.34139
C          6.34137        2.36884       -0.27376
C          4.95585        2.36020       -0.15463
C          4.28203        1.13855       -0.10627
O          2.87947        1.20920       -0.00558
H          2.17181       -2.09291        0.02799
H          6.93100       -0.97007       -0.34203
H          8.11869        1.16546       -0.43925
H          6.88005        3.31212       -0.31703
H          4.40328        3.29431       -0.10391
