33

C          0.82547        0.23443       -0.18236
C          0.71220       -0.47576        1.15527
C          1.17055        0.36972        2.34377
C          2.59945        0.89821        2.23983
C          3.12673        0.71696        3.64606
C          2.44014       -0.57206        4.04412
C          2.41418       -0.87626        5.53297
C          2.69020       -2.36956        5.61854
C          2.67315       -2.83989        4.17373
C          3.61037       -4.00021        3.85899
C          3.25186       -5.27405        4.60371
O          3.08293       -1.69053        3.42242
O          1.10668       -0.44450        3.53372
H          0.30905        1.19853       -0.16423
H          0.37739       -0.37868       -0.97099
H          1.87161        0.40655       -0.45378
H         -0.33126       -0.77326        1.32077
H          1.27872       -1.41447        1.12212
H          0.47443        1.20293        2.49356
H          3.19695        0.30207        1.54094
H          2.63563        1.93867        1.90183
H          4.21891        0.65706        3.66963
H          2.79462        1.55124        4.27406
H          3.20047       -0.33473        6.07112
H          1.45462       -0.61772        5.99293
H          3.67628       -2.52713        6.07183
H          1.95735       -2.89979        6.23441
H          1.65031       -3.09693        3.86829
H          3.58661       -4.19212        2.77881
H          4.64640       -3.71715        4.08253
H          2.22353       -5.57935        4.38601
H          3.91835       -6.08749        4.29981
H          3.35239       -5.14467        5.68548
