23

N          0.52863        0.79651       -0.41780
C          0.24887        1.04972        0.87945
S         -1.29696        0.79807        1.44139
N          1.23955        1.47165        1.75700
S          2.84611        1.83303        1.55975
O          2.93023        3.05183        0.78198
O          3.45525        1.72574        2.86524
C          3.48703        0.50506        0.57582
C          4.09678        0.79933       -0.64682
C          4.44198       -0.24101       -1.50956
C          4.23070       -1.57330       -1.14202
N          4.40609       -2.59136       -2.08522
C          3.60879       -1.84829        0.08208
C          3.25671       -0.81704        0.95713
H         -0.20532        0.41422       -1.00214
H          1.43719        0.89296       -0.84415
H          0.96781        1.52680        2.73698
H          4.26340        1.82947       -0.95655
H          4.86218       -0.00095       -2.48348
H          4.53083       -3.51460       -1.68145
H          5.10617       -2.38576       -2.79180
H          3.37470       -2.87464        0.35506
H          2.76812       -1.04974        1.89997
