42

C          1.08707       -0.73313       -3.22338
C          0.19018        0.15204       -3.67854
C         -0.76960        0.93695       -2.82474
O          0.03136        1.90443       -2.15542
C         -0.61077        2.76820       -1.31206
C         -1.52797        3.69030       -1.83193
C         -1.85995        4.83547       -1.10371
C         -1.24709        5.08007        0.12255
C         -0.38470        4.12882        0.66847
C         -0.10783        2.93755       -0.01348
O          0.64563        2.04813        0.71564
C          0.47506        0.64434        0.46564
C         -0.72945       -0.00656        1.18141
O         -1.88118        0.85028        1.17705
C         -1.18747       -1.33995        0.53035
N         -0.16164       -2.36212        0.29024
C         -0.71239       -3.57262       -0.35310
C         -1.19163       -3.34731       -1.79274
C          0.37735       -4.64874       -0.36503
H          1.17655       -0.97203       -2.17079
H          1.78912       -1.21944       -3.89369
H          0.18463        0.38501       -4.73980
H         -1.53002        1.39745       -3.46317
H         -1.27051        0.28283       -2.10468
H         -1.93536        3.57178       -2.83110
H         -2.54840        5.56682       -1.52052
H         -1.43767        6.00931        0.65378
H          0.08255        4.31839        1.63189
H          0.48406        0.41306       -0.59059
H          1.38427        0.16142        0.84514
H         -0.46918       -0.17709        2.23201
H         -1.59218        1.70539        1.54307
H         -1.97030       -1.76446        1.17298
H         -1.69193       -1.08464       -0.40652
H          0.58606       -1.99119       -0.29105
H         -1.55033       -3.95319        0.24352
H         -0.38199       -2.98259       -2.43067
H         -1.54962       -4.28637       -2.23025
H         -2.02060       -2.63631       -1.84910
H          0.70780       -4.88867        0.65078
H          0.00106       -5.57370       -0.81756
H          1.25227       -4.32953       -0.94348
