16

N          0.91379       -0.10635       -0.05317
C          0.38684        0.86686       -0.84932
O         -0.76392        1.24954       -0.66655
C          1.24582        1.48292       -1.90012
C          0.87639        2.77997       -2.30537
C          1.60683        3.46877       -3.27572
C          2.71582        2.86899       -3.86149
C          3.08808        1.57968       -3.48073
C          2.35856        0.88136       -2.50642
Cl         2.89784       -0.72644       -2.16398
H          0.30341       -0.53452        0.63022
H          1.82861       -0.51037       -0.20470
H          0.00941        3.26457       -1.85659
H          1.30555        4.47107       -3.57180
H          3.28666        3.40018       -4.61957
H          3.95030        1.11729       -3.95710
