14

C          1.05601       -0.00837       -0.00086
C          0.60155       -1.41689       -0.26374
C         -0.26471       -2.06173        0.78487
C          0.92394       -2.11657       -1.36782
C          1.76517       -1.59915       -2.46877
O          2.02167       -2.28892       -3.44830
H          0.68008        0.37065        0.95472
H          0.69114        0.66720       -0.78145
H          2.14895        0.04364        0.03940
H         -1.23688       -2.33816        0.36302
H          0.21840       -2.96063        1.18244
H         -0.45415       -1.39239        1.62978
H          0.57274       -3.13361       -1.51670
H          2.14595       -0.57160       -2.36444
