20

C          1.11392       -0.27195       -0.11283
C          0.46448        0.81069       -0.56294
C         -1.04580        0.94370       -0.57224
C         -1.58641        1.40911        0.79621
C         -1.50397        2.89373        1.01113
C         -1.30605        3.76773        0.01403
C         -1.17672        3.36063       -1.42450
C         -1.53706        1.89104       -1.68203
H          0.58340       -1.12843        0.29051
H          2.19885       -0.30882       -0.11806
H          1.05339        1.64778       -0.93081
H         -1.46388       -0.05137       -0.77938
H         -2.64125        1.11842        0.88316
H         -1.05576        0.89774        1.60851
H         -1.60560        3.25292        2.03196
H         -1.23235        4.82876        0.23934
H         -0.14815        3.55635       -1.74920
H         -1.82530        3.99707       -2.03772
H         -1.14512        1.58376       -2.65944
H         -2.63060        1.80778       -1.74956
