32

N          0.84961       -0.28742       -0.04108
S          0.87009       -1.29002        1.29853
O          1.99214       -0.88347        2.11324
O         -0.48675       -1.24921        1.79045
C          1.18707       -2.91521        0.69577
C          0.50452       -3.96693        1.31777
C          0.73297       -5.30416        0.93976
C          0.05092       -6.28167        1.80605
O         -1.13878       -6.30875        2.05352
O          0.92943       -7.08631        2.42725
C          1.55528       -5.61861       -0.15833
N          1.85178       -6.87737       -0.68678
C          1.08900       -8.09022       -0.39728
C          0.85275       -8.98207       -1.57076
C          1.06095      -10.32605       -1.80339
C          0.49484      -10.60223       -3.07205
C         -0.00006       -9.40816       -3.54052
O          0.22289       -8.41612       -2.64197
C          2.26259       -4.53460       -0.72858
C          2.10396       -3.20152       -0.30601
Cl         3.13167       -2.03163       -1.05094
H         -0.06088        0.16374       -0.13256
H          1.63102        0.36905        0.00886
H         -0.18334       -3.75809        2.13880
H          0.38355       -7.60559        3.05384
H          2.11608       -6.84447       -1.67063
H          1.62689       -8.65433        0.37341
H          0.09031       -7.86276       -0.01831
H          1.52602      -11.02782       -1.12466
H          0.43805      -11.55630       -3.57704
H         -0.52320       -9.11378       -4.43976
H          2.98094       -4.74039       -1.52306
