18

N          0.67324        0.24940        0.10260
C          0.29844       -0.17278        1.31751
O         -0.88817       -0.40010        1.54490
N          1.22534       -0.43810        2.26357
C          2.62235       -0.26689        2.36086
C          3.24268       -0.92908        3.43381
C          4.62397       -0.84249        3.64057
C          5.41050       -0.07942        2.78362
C          4.81103        0.60200        1.72861
C          3.43173        0.51086        1.52558
F          2.92063        1.25071        0.53196
H         -0.09342        0.49700       -0.50768
H          1.49012        0.83645        0.02286
H          0.78008       -0.90207        3.04635
H          2.65840       -1.53917        4.12001
H          5.08224       -1.37347        4.47202
H          6.48355       -0.00783        2.94225
H          5.40686        1.21940        1.06277
