32

Cl         1.13952        0.30712        0.02694
C          2.85726        0.23573        0.00944
C          3.59900        1.39871        0.18001
C          4.99459        1.34013        0.17940
C          5.65547        0.10897        0.00987
C          4.90261       -1.05963       -0.21533
C          3.49748       -0.98474       -0.18936
C          5.50395       -2.37889       -0.60331
C          4.85008       -3.13832       -1.71180
C          4.55816       -2.51037       -2.92805
C          3.93859       -3.23441       -3.94740
C          3.61445       -4.57795       -3.75274
C          3.91996       -5.20646       -2.54464
C          4.54672       -4.49047       -1.52453
N          6.54447       -2.92322       -0.07654
C          7.27856       -2.25687        0.98667
C          7.84919       -0.97679        0.51550
N          9.11480       -0.60828        0.53369
N          9.17819        0.70730        0.15414
C          7.95104        1.10856       -0.07946
N          7.06624        0.07774        0.10847
H          3.09799        2.35225        0.33311
H          5.53562        2.26594        0.36450
H          2.89202       -1.87748       -0.33643
H          4.82435       -1.47121       -3.09936
H          3.71591       -2.75542       -4.89778
H          3.13335       -5.14069       -4.54941
H          3.67673       -6.25626       -2.40069
H          4.79523       -4.98418       -0.58825
H          6.64446       -2.10791        1.86887
H          8.09357       -2.91675        1.30482
H          7.67296        2.09904       -0.40707
