39

C          0.61949       -0.08126        0.43558
C          0.44669        1.22714        0.65766
C         -0.15553        2.20906       -0.32288
C         -1.52099        2.64106        0.26278
C         -1.11807        3.59372        1.40791
C          0.42993        3.46239        1.43156
C          0.68336        3.48361       -0.09500
C          2.13746        3.60701       -0.63784
C          2.31481        5.08162       -1.11212
C          2.34655        2.72668       -1.88667
C          3.27505        3.38896        0.38501
C          3.33593        2.03626        1.06662
C          2.35589        1.90362        2.22348
C          0.85392        2.01938        1.89336
C          0.08117        1.54997        3.14517
H          0.31152       -0.53949       -0.49911
H          1.08301       -0.72372        1.17784
H         -0.22584        1.85345       -1.35253
H         -2.11387        1.79417        0.62543
H         -2.11711        3.17978       -0.48229
H         -1.60987        3.35720        2.35382
H         -1.40632        4.62166        1.15312
H          0.90367        4.27183        1.99283
H          0.12487        4.31802       -0.54840
H          3.32187        5.25642       -1.50870
H          1.60443        5.33643       -1.90720
H          2.15609        5.78238       -0.28388
H          2.26590        1.65978       -1.66198
H          1.60606        2.96039       -2.66063
H          3.33750        2.89124       -2.32555
H          4.23366        3.52671       -0.13580
H          3.24978        4.17490        1.15155
H          3.22238        1.21830        0.34942
H          4.34443        1.91554        1.48437
H          2.60774        2.65001        2.98945
H          2.55307        0.92803        2.68923
H          0.47504        0.59992        3.52573
H          0.16267        2.28831        3.95072
H         -0.98124        1.37280        2.94785
