16

O          1.16835        0.17503        0.44705
C          2.32046        0.05179        0.03344
Cl         3.08214       -1.49901       -0.24220
C          3.09073        1.31196       -0.21966
C          4.26604        1.32271       -0.97948
C          4.95821        2.52253       -1.18848
C          4.49151        3.72870       -0.64139
C          5.27165        4.98762       -0.88650
O          6.28566        4.89200       -1.57654
Cl         4.72641        6.50135       -0.19753
C          3.31269        3.71676        0.11454
C          2.61731        2.51791        0.31930
H          4.66187        0.41580       -1.43075
H          5.86967        2.50697       -1.78643
H          2.90783        4.62335        0.55792
H          1.70172        2.53219        0.91086
