20

C          1.13887        0.02014        0.04391
C          0.58366        0.17966       -1.37244
C          1.08858       -0.96938       -2.22118
O          0.43423       -1.89696       -2.66572
O          2.41204       -0.89547       -2.46189
C         -0.96186        0.22481       -1.40055
C         -1.54706        1.34606       -0.54222
C         -1.51164        0.38947       -2.80301
O         -2.57093       -0.05894       -3.21069
O         -0.77920        1.20409       -3.58481
H          0.72294       -0.86701        0.53393
H          0.91316        0.89450        0.66163
H          2.22857       -0.09307        0.03350
H          0.98396        1.10441       -1.80764
H          2.60193       -1.69091       -3.00270
H         -1.34752       -0.73586       -1.03265
H         -1.11615        2.31658       -0.81198
H         -2.63198        1.42000       -0.67869
H         -1.36441        1.17137        0.52221
H         -1.29759        1.24928       -4.41677
