38

C          1.43029       -0.21757        0.00745
C          0.72926       -0.26282       -1.34468
C          0.84769       -1.63411       -2.06746
N          0.17213       -2.64949       -1.22138
C         -0.50057       -3.71177       -1.82311
N         -1.83396       -3.63053       -1.64586
C         -2.57731       -4.55042       -2.27166
N         -2.11951       -5.52175       -3.06812
C         -0.77399       -5.60189       -3.20718
C         -0.28996       -6.67363       -4.13864
C          0.09502       -4.74815       -2.53634
Cl         1.80249       -5.01175       -2.53229
C          0.32563       -1.54967       -3.50792
C         -0.79295       -0.78599       -3.87181
C         -1.27212       -0.79504       -5.18734
C         -0.68493       -1.60999       -6.15430
O         -1.26827       -1.57762       -7.38842
C         -1.26466       -2.80037       -8.11957
F         -0.02268       -3.04915       -8.60011
F         -1.62639       -3.83402       -7.32183
C          0.44879       -2.34321       -5.82361
C          0.96187       -2.28799       -4.52254
H          1.02867       -0.96684        0.69667
H          1.28128        0.76481        0.46875
H          2.50537       -0.38352       -0.10150
H         -0.32645       -0.01431       -1.17252
H          1.14204        0.53221       -1.97783
H          1.91601       -1.88410       -2.10988
H         -0.58748       -2.19606       -0.71352
H         -3.64952       -4.49634       -2.12278
H          0.08160       -7.53386       -3.57569
H         -1.10825       -7.01195       -4.78489
H          0.49711       -6.29590       -4.79939
H         -1.31929       -0.17610       -3.14317
H         -2.13207       -0.18288       -5.44744
H         -1.96475       -2.73077       -8.95649
H          0.96131       -2.96254       -6.55349
H          1.86174       -2.85794       -4.30403
