34

O          0.98446        0.06156        0.05675
C          2.21002        0.06696        0.05815
C          2.95070        1.34808        0.05884
C          2.23668        2.54561        0.05707
C          2.92051        3.76007        0.05779
Br         1.84251        5.33186        0.05491
C          4.33624        3.80352        0.06045
C          5.08530        5.00638        0.06158
C          6.48017        5.00832        0.06420
C          7.16838        3.80535        0.06564
C          6.45806        2.60051        0.06455
C          7.22377        1.33069        0.06600
O          8.44933        1.33600        0.06795
C          6.48305        0.04971        0.06498
C          7.19724       -1.14768        0.06613
C          6.51361       -2.36216        0.06511
Br         7.59193       -3.93371        0.06642
C          5.09791       -2.40569        0.06295
C          4.34917       -3.60866        0.06187
C          2.95432       -3.61082        0.05926
C          2.26583       -2.40795        0.05792
C          2.97585       -1.20289        0.05929
C          4.38532       -1.17335        0.06170
C          5.08236        0.05940        0.06273
C          4.35139        1.33837        0.06122
C          5.04858        2.57109        0.06208
H          1.14788        2.52502        0.05509
H          4.58870        5.97512        0.06048
H          7.02514        5.94952        0.06507
H          8.25692        3.80579        0.06762
H          8.28603       -1.12689        0.06770
H          4.84600       -4.57728        0.06300
H          2.40963       -4.55218        0.05829
H          1.17729       -2.40870        0.05581
