31

C         -0.39055       -2.28745        0.42988
C          0.14586       -0.94710        0.09030
N          1.15890       -0.85050       -0.77078
O          1.35989        0.49344       -0.94911
C          0.44942        1.22080       -0.23250
N          0.42934        2.61717       -0.43473
S         -0.68693        3.71633        0.08775
O         -0.60670        3.79115        1.53023
O         -0.48035        4.89753       -0.72601
C         -2.30081        3.11145       -0.34150
C         -2.49280        2.15889       -1.34249
C         -3.74750        1.55469       -1.47946
C         -4.82929        1.94837       -0.68339
N         -6.01293        1.20307       -0.68679
C         -4.62599        2.92602        0.29399
C         -3.37290        3.51752        0.45980
C         -0.30753        0.34091        0.52352
C         -1.39380        0.54048        1.51284
H         -0.81822       -2.30878        1.43575
H         -1.17750       -2.55984       -0.28207
H          0.39090       -3.05274        0.38079
H          1.07513        2.97503       -1.13579
H         -1.67660        1.82774       -1.97763
H         -3.86740        0.74740       -2.19836
H         -6.82043        1.70445       -0.32908
H         -6.20936        0.72987       -1.56272
H         -5.43621        3.21452        0.95918
H         -3.22901        4.26010        1.24270
H         -1.43423        1.54982        1.91368
H         -2.36357        0.29582        1.06813
H         -1.25129       -0.12359        2.37223
