62

C          0.59280        0.40806        0.42558
C          0.03622       -0.25951       -0.81051
C         -0.29685       -1.72077       -0.63166
O         -1.16709       -1.99326       -1.73495
C         -1.85118       -0.75160       -1.97588
C         -3.26516       -0.95309       -1.43001
C         -1.93014       -0.41811       -3.48881
C         -0.72783        0.30034       -4.12504
C          0.46987       -0.57297       -4.41579
O          1.22194       -0.40490       -5.35927
O          0.59405       -1.51563       -3.46392
C          1.58172       -2.54806       -3.50830
C          1.01536       -3.73360       -4.27871
C          0.92532       -3.47537       -5.78070
C          2.24880       -3.00617       -6.38007
O          3.03335       -4.15356       -6.69084
C          3.87876       -4.65225       -5.76346
O          4.13896       -4.13850       -4.68368
C          4.46248       -5.96191       -6.23962
C          3.40084       -6.85632       -6.88808
C          3.21934       -6.69172       -8.41408
C          4.15277       -7.64138       -9.16800
O          1.86972       -7.03600       -8.74177
C          1.50155       -6.20258       -9.83865
C          2.53020       -5.09140       -9.90409
C          1.91674       -3.71348       -9.71949
O          3.48220       -5.37000       -8.87599
O         -1.21367        0.30273       -1.23170
H          0.00393        0.16196        1.31324
H          0.57971        1.49648        0.31346
H          1.62623        0.08652        0.59659
H          0.75314       -0.09906       -1.61977
H          0.57726       -2.37552       -0.65423
H         -0.85444       -1.91387        0.29014
H         -3.85665       -0.03577       -1.49621
H         -3.77912       -1.75682       -1.97029
H         -3.23295       -1.24824       -0.37525
H         -2.14561       -1.33390       -4.05506
H         -2.78164        0.25919       -3.63897
H         -1.05934        0.68847       -5.09782
H         -0.40231        1.15674       -3.52819
H          2.53860       -2.15784       -3.85511
H          1.75416       -2.86254       -2.47513
H          1.61683       -4.62697       -4.08528
H          0.00296       -3.95261       -3.91320
H          0.59776       -4.40260       -6.26906
H          0.14322       -2.73487       -5.97749
H          2.04496       -2.48440       -7.31653
H          2.82749       -2.29787       -5.78887
H          5.31445       -5.76524       -6.89563
H          4.83905       -6.47323       -5.34418
H          3.64698       -7.90549       -6.67507
H          2.43651       -6.69653       -6.38533
H          5.20004       -7.45014       -8.91468
H          3.90940       -8.68656       -8.95176
H          4.05463       -7.50681      -10.25118
H          0.47615       -5.84666       -9.69629
H          1.52138       -6.80361      -10.75260
H          3.05982       -5.10525      -10.86227
H          2.68601       -2.96510       -9.50140
H          1.36729       -3.40136      -10.61234
H          1.20544       -3.71233       -8.88762
