39

C          1.09396        0.41824        0.32889
C          0.75774        0.46004       -1.15403
C          1.26496       -0.76322       -1.92127
C          0.67512       -2.10351       -1.47027
C         -0.83544       -2.24814       -1.68698
C         -1.23481       -2.29244       -3.15734
O         -0.60673       -3.43019       -3.76652
C          0.15344       -3.19939       -4.86576
O          0.43161       -2.09330       -5.31845
C          0.58452       -4.50365       -5.55359
C          0.23014       -5.79560       -4.82758
O          0.15967       -4.54384       -6.92899
C         -1.16404       -4.27500       -7.15033
O         -2.02252       -4.18550       -6.28278
C         -1.40053       -3.97669       -8.62915
C         -1.01402       -2.53170       -8.90864
O         -0.67675       -4.83865       -9.49957
H          0.55908       -0.38800        0.83932
H          0.80703        1.35964        0.80750
H          2.16805        0.27295        0.48286
H         -0.32359        0.57583       -1.28320
H          1.21864        1.35492       -1.58928
H          1.07301       -0.61132       -2.98916
H          2.35590       -0.81599       -1.81716
H          1.19777       -2.90738       -2.00307
H          0.89408       -2.26579       -0.40935
H         -1.14618       -3.19085       -1.21915
H         -1.38161       -1.44717       -1.17887
H         -2.31719       -2.44319       -3.23648
H         -1.00594       -1.34811       -3.66163
H          1.68079       -4.45395       -5.58270
H         -0.85177       -5.93054       -4.73577
H          0.61339       -6.66027       -5.37977
H          0.65855       -5.80907       -3.81969
H         -2.46573       -4.12936       -8.83180
H          0.06687       -2.38722       -8.79528
H         -1.26395       -2.25846       -9.93849
H         -1.52015       -1.84099       -8.22611
H          0.25656       -4.79671       -9.22157
