20

C          1.02306       -0.05661        0.21035
C          0.50500       -1.45182        0.39211
C          1.31773       -2.55489        0.12916
C          0.82481       -3.84768        0.30901
C         -0.49838       -4.06297        0.72783
C         -0.97362       -5.47228        0.94896
C         -1.35089       -2.96039        0.91117
N         -2.64861       -3.11329        1.42805
C         -0.82174       -1.66702        0.78931
H          0.62284        0.60860        0.98270
H          0.73373        0.32477       -0.77374
H          2.11482       -0.02721        0.29049
H          2.34642       -2.41792       -0.19551
H          1.48804       -4.69134        0.13145
H         -1.36298       -5.58933        1.96550
H         -1.75594       -5.72511        0.22619
H         -0.16066       -6.19593        0.82638
H         -3.08310       -3.99565        1.18083
H         -3.25542       -2.32432        1.22949
H         -1.45472       -0.80937        1.00553
