24

N          0.91074        0.39498        0.07817
C          0.19994       -0.27735        1.02422
O         -0.99597       -0.51578        0.89328
C          0.99369       -0.74410        2.21886
C          1.74290       -2.04074        1.91343
O          2.77780       -1.71163        0.94570
C          2.48148       -2.60670        3.13295
C          1.56276       -3.13798        4.20557
N          1.69136       -4.46410        4.48630
O          0.76290       -2.43973        4.81665
C          0.88986       -3.16118        1.27311
N         -0.40043       -3.31915        1.66905
O          1.39854       -3.95429        0.47854
H          0.43378        0.61835       -0.78546
H          1.91762        0.26726        0.03645
H          1.69410        0.05277        2.49863
H          0.28347       -0.85078        3.04422
H          2.96504       -2.54762        0.46522
H          3.16818       -3.40187        2.81272
H          3.12356       -1.84039        3.58492
H          1.05942       -4.85607        5.17331
H          2.22173       -5.10455        3.91103
H         -0.92841       -4.00532        1.14240
H         -0.94908       -2.50474        1.93886
