31

C          0.58209       -0.51909       -0.87579
C          0.39223       -1.94849       -0.39601
C          1.03470       -2.31728        0.98003
C          0.45633       -1.46195        2.16297
C          1.28698       -0.37084        2.88047
C          1.43802        0.91982        2.07773
C          0.61515       -0.02130        4.21996
C          2.55726       -2.29305        0.81319
O          3.27988       -1.33219        1.06057
N          3.12965       -3.39691        0.24296
C          2.60971       -4.64937        0.27145
O          3.30340       -5.63771        0.05718
N          1.30841       -4.76061        0.63490
C          0.56172       -3.76782        1.20167
O         -0.48845       -4.06614        1.76986
H          0.05986        0.19063       -0.23084
H          0.16013       -0.40819       -1.88062
H          1.63948       -0.24841       -0.93422
H         -0.68736       -2.15027       -0.36041
H          0.78672       -2.61045       -1.17929
H         -0.50238       -1.02456        1.85106
H          0.18100       -2.16108        2.96496
H          2.27676       -0.76436        3.13352
H          0.46110        1.34836        1.82964
H          1.98971        1.67033        2.65503
H          1.99052        0.76729        1.15010
H          0.55313       -0.90259        4.86750
H          1.18984        0.74063        4.75772
H         -0.39981        0.36169        4.06816
H          4.13128       -3.34999        0.11174
H          0.96901       -5.70336        0.76976
