50

C          1.40069       -0.59201       -1.73628
C          0.97714       -0.70418       -0.28463
C          1.49367       -1.98685        0.38273
C          1.79485       -1.74740        1.86683
C          0.77605       -0.77936        2.50597
C          0.49108        0.44598        1.56847
C          0.44495        1.78968        2.26323
C         -0.27453        1.67174        3.60787
C          0.66415        0.91607        4.54594
C          0.45047        1.07922        6.08089
C          0.27404        2.57409        6.46142
C         -0.81113        0.37211        6.62333
C          1.76316        0.58936        6.77308
C          2.53681       -0.58456        6.13261
C          2.44270       -0.75152        4.59809
C          0.99504       -0.54744        4.07008
C          0.14905       -1.69093        4.70940
C         -0.79977        0.24594        0.75977
O         -0.46139       -0.73877       -0.21784
O          1.43352        0.43013        0.47885
H          1.03479        0.34480       -2.17085
H          0.98645       -1.41163       -2.33346
H          2.49106       -0.59116       -1.83390
H          0.74807       -2.78670        0.28407
H          2.41076       -2.34714       -0.09734
H          2.80288       -1.32453        1.94752
H          1.80652       -2.71141        2.38802
H         -0.17098       -1.33833        2.45619
H          1.46674        2.17528        2.39164
H         -0.04988        2.54329        1.63768
H         -0.46172        2.68768        3.96349
H         -1.24492        1.17236        3.51453
H          1.60291        1.48009        4.39868
H         -0.68412        2.97186        6.10849
H          0.28781        2.70122        7.55111
H          1.07409        3.19520        6.04561
H         -1.53650        0.17161        5.82840
H         -0.58051       -0.56318        7.14004
H         -1.34118        0.98352        7.36363
H          2.46858        1.43212        6.79966
H          1.56503        0.35177        7.82660
H          3.59701       -0.48465        6.40149
H          2.21651       -1.51633        6.61257
H          3.12042       -0.03304        4.11636
H          2.82801       -1.74517        4.34293
H         -0.91875       -1.56562        4.50646
H          0.44774       -2.66356        4.29716
H          0.28077       -1.80372        5.78358
H         -1.08057        1.15196        0.20767
H         -1.65907       -0.07737        1.35269
