55

O          0.96575       -0.66004        0.87861
C          2.16601       -0.30869        0.89800
C          3.13083        1.32882       -0.02569
C          4.81884        1.82406       -0.34852
C          6.08068        1.27913        0.32807
C          6.62525        0.06104       -0.11391
C          7.39345       -0.71761        0.75147
C          7.69847       -0.23018        2.01565
O          8.27921       -1.03031        2.95500
C          7.36631        1.06911        2.37499
C          6.57364        1.83825        1.51945
C          2.70769       -1.41557        1.93017
C          2.39359       -2.77401        1.78621
O          1.47080       -3.20886        0.87212
C          3.04490       -3.73498        2.55629
C          3.95995       -3.32898        3.52512
O          4.64252       -4.29518        4.20370
C          4.17178       -1.97996        3.78796
C          3.52535       -1.03851        2.99296
O          3.73764        0.28189        3.23087
C          3.53015        0.88994        1.96564
O          4.13986       -0.25867        0.63255
C          3.24352       -0.63357       -0.91644
C          3.52813       -2.11608       -1.24816
O          2.43364       -2.84190       -1.76140
C          1.51523        0.14222       -1.19272
O          0.50201       -0.83679       -1.45550
C          0.87867        1.42902        0.08451
O         -0.52616        1.24703        0.31273
C          1.75656        1.62669        1.77576
O          0.89276        1.17890        2.83075
H          2.83989        1.55697       -1.06034
H          2.86990        2.33009        0.35311
H          4.96177        1.75813       -1.43607
H          4.81095        2.90981       -0.15657
H          6.30733       -0.36928       -1.05993
H          7.67144       -1.72259        0.45126
H          8.16722       -1.95146        2.66312
H          7.64870        1.44932        3.35268
H          6.24427        2.81794        1.85761
H          0.87091       -2.44303        0.71030
H          2.85231       -4.79145        2.39423
H          5.30844       -3.87183        4.77124
H          4.86113       -1.64911        4.55765
H          4.19719        1.75009        1.94235
H          3.88883       -0.10285       -1.63206
H          4.29793       -2.14861       -2.02822
H          3.96833       -2.65090       -0.40278
H          1.93215       -3.19266       -0.99876
H          1.58670        0.68269       -2.14984
H         -0.17014       -0.67761       -0.76181
H          0.97011        2.40153       -0.42299
H         -0.55276        0.69545        1.12545
H          1.86024        2.71095        1.94157
H          1.35794        1.34014        3.67249
