18

Cl         1.00151       -0.02769       -0.17149
C          2.71927       -0.00851       -0.07388
C          3.39505        1.20723       -0.04392
C          4.78906        1.22315        0.03408
C          5.51739        0.02345        0.08077
C          6.91911        0.02411        0.15614
C          7.63399       -1.17720        0.19788
Cl         9.35731       -1.08304        0.28630
C          6.95084       -2.39540        0.16640
Cl         7.76787       -3.91749        0.21193
C          5.55423       -2.40959        0.09394
C          4.82503       -1.21048        0.04962
C          3.42303       -1.21132       -0.02677
H          2.84582        2.14448       -0.08140
H          5.30186        2.18309        0.05653
H          7.46131        0.96761        0.18118
H          5.03196       -3.36444        0.07023
H          2.87484       -2.15069       -0.05125
