28

Cl         1.08551       -0.07707       -0.15534
C          2.84586        0.07884        0.00582
C          3.22043        0.39825        1.42568
C          3.51941       -0.62596        2.33246
C          3.85558       -0.32690        3.65676
C          3.89256        0.99952        4.11324
C          4.23945        1.31022        5.50835
C          5.45492        0.88229        6.06363
C          5.78413        1.17390        7.39123
C          4.90381        1.90416        8.19973
C          5.25107        2.20515        9.63067
Cl         4.89827        0.80889       10.66796
C          3.68431        2.32593        7.65637
C          3.36062        2.03621        6.32673
C          3.58037        2.01914        3.20115
C          3.24685        1.72432        1.87521
H          3.30509       -0.85993       -0.32076
H          3.18672        0.86610       -0.67460
H          3.48488       -1.66741        2.01918
H          4.07231       -1.14450        4.34199
H          6.16214        0.31866        5.45815
H          6.73231        0.81975        7.79095
H          6.31379        2.45045        9.72788
H          4.67964        3.06035       10.00583
H          2.97017        2.87755        8.26428
H          2.40068        2.36767        5.93475
H          3.60080        3.05971        3.51935
H          3.00273        2.54017        1.19781
