74

C          0.35104       -0.09225       -0.39192
C          0.91956        1.31876       -0.37015
N          1.12570        1.90319       -1.71068
C          0.04494        2.85556       -2.10069
C          0.54277        4.17089       -2.68841
C          2.11284        1.47304       -2.62803
C          2.18282        1.99754       -3.87349
C          1.70277        1.10581       -5.01418
O          0.72937        1.81849       -5.79630
C         -0.55595        1.54205       -5.42623
C         -1.48982        2.57843       -5.52088
C         -2.80637        2.50082       -4.99039
N         -3.57337        3.67312       -4.98590
C         -2.88080        4.96494       -4.76407
C         -3.09606        5.89947       -5.94810
C         -5.01878        3.74400       -4.75411
C         -5.81095        3.18325       -5.91968
C         -3.18281        1.22314       -4.50266
C         -4.53085        0.78332       -3.99177
C         -2.23789        0.16043       -4.49595
C         -0.92236        0.30672       -4.93268
C          0.06245       -0.79794       -4.77509
C         -0.33021       -2.24079       -4.76815
C          0.02847       -3.09655       -3.71263
C         -0.36810       -4.44037       -3.69181
C         -1.15923       -4.95777       -4.71081
C         -1.55820       -4.13028       -5.75356
C         -1.14767       -2.78460       -5.79964
C         -1.74324       -2.00320       -6.91840
O         -2.90776       -2.16724       -7.27656
O         -0.85909       -1.15240       -7.48241
C         -1.45531       -0.19577       -8.36616
C          1.29517       -0.29611       -4.53209
C          2.25363       -0.79141       -3.53695
C          2.65722        0.09162       -2.58488
C          3.69231       -0.21353       -1.54450
H         -0.43303       -0.21233       -1.14516
H         -0.07240       -0.33626        0.58865
H          1.12697       -0.83731       -0.58206
H          0.21820        1.93706        0.20478
H          1.85001        1.35754        0.20340
H         -0.64597        2.35964       -2.78402
H         -0.56380        3.12174       -1.22887
H          1.44551        4.52718       -2.18452
H          0.75313        4.08666       -3.75909
H         -0.23069        4.94041       -2.59614
H          3.18983        2.31393       -4.16330
H          2.55061        0.95452       -5.69884
H         -1.13794        3.49381       -5.98957
H         -3.27129        5.43404       -3.85172
H         -1.80713        4.86434       -4.57696
H         -4.15139        6.17064       -6.05566
H         -2.53039        6.82583       -5.80781
H         -2.77413        5.43556       -6.88560
H         -5.29651        3.32382       -3.78913
H         -5.32937        4.79271       -4.65289
H         -5.51062        2.17004       -6.19169
H         -6.87729        3.17157       -5.67350
H         -5.67561        3.81024       -6.80704
H         -5.15834        0.45362       -4.82476
H         -4.42918       -0.07362       -3.31277
H         -5.04157        1.52202       -3.38613
H         -2.54650       -0.80292       -4.09035
H          0.59629       -2.72601       -2.86398
H         -0.07277       -5.07924       -2.86275
H         -1.48641       -5.99414       -4.68418
H         -2.21101       -4.52711       -6.53051
H         -1.55417       -0.62572       -9.36581
H         -2.43012        0.14891       -8.00028
H         -0.79644        0.67558       -8.42045
H          2.61423       -1.81131       -3.57597
H          3.66083        0.49213       -0.70856
H          3.55667       -1.21714       -1.12964
H          4.69493       -0.14636       -1.97920
