19

C          1.36383       -0.23510        0.05703
C          0.88263        1.05842       -0.13705
C         -0.49286        1.28704       -0.23689
C         -1.40058        0.22241       -0.14053
C         -2.84486        0.42890       -0.24597
N         -3.78460       -0.26402        0.37163
C         -4.98168        0.26833       -0.03084
C         -4.78152        1.28253       -0.93308
N         -3.42398        1.37336       -1.06416
C         -0.90284       -1.07031        0.07192
C          0.47181       -1.29993        0.16310
H          2.43335       -0.41273        0.13538
H          1.57841        1.89114       -0.20141
H         -0.84215        2.30830       -0.36214
H         -5.92158       -0.11414        0.34550
H         -5.46104        1.92131       -1.47834
H         -2.92094        1.99806       -1.67648
H         -1.59374       -1.90702        0.16310
H          0.84203       -2.30943        0.32153
