38

O          2.20935        1.25616       -0.11032
C          1.46101        0.29870       -0.08082
O          1.81945       -1.01389       -0.00849
C          0.67093       -1.91789       -0.02979
C          0.78411       -2.69907       -1.35789
C          1.96514       -3.41975       -1.64547
C          2.04428       -4.27637       -2.74851
C          0.95615       -4.39077       -3.60321
O          0.96194       -5.25251       -4.65845
C         -0.18614       -3.63352       -3.39703
C         -0.27228       -2.79383       -2.28404
C          0.73609       -2.79463        1.24268
C          0.83774       -2.19293        2.51659
C          0.87426       -2.96024        3.68659
C          0.83203       -4.34490        3.59841
O          0.87119       -5.13450        4.70804
C          0.74047       -4.96980        2.36510
C          0.67242       -4.20182        1.19968
C         -0.47476       -0.94709        0.03210
C         -1.84088       -1.16823        0.16702
C         -2.70051       -0.06579        0.16683
C         -2.19183        1.23891        0.06130
C         -0.81649        1.45470       -0.03441
C          0.00904        0.34258       -0.04650
H          2.81853       -3.35497       -0.97011
H          2.94994       -4.85247       -2.90960
H          1.76562       -5.79550       -4.60963
H         -1.02214       -3.71118       -4.08697
H         -1.19509       -2.23510       -2.16131
H          0.88175       -1.10928        2.61298
H          0.93782       -2.45946        4.64755
H          0.90763       -4.56455        5.49331
H          0.71670       -6.05448        2.30491
H          0.57647       -4.73899        0.25903
H         -2.23883       -2.17606        0.25531
H         -3.77482       -0.21963        0.24888
H         -2.87521        2.08550        0.06400
H         -0.40460        2.45759       -0.09245
