45

C          1.20554        0.28505       -0.55810
O          0.90056        0.48046        0.81733
C          1.27228       -0.60242        1.55638
C          2.86359       -1.38924        1.35549
C          3.26165       -2.72671        2.51591
O          4.48689       -3.33062        2.57370
C          5.26233       -3.12904        1.40266
N          2.08390       -3.32516        3.70602
C          0.54048       -2.50019        3.89043
N         -0.44395       -3.20092        4.55562
C         -1.78371       -3.13788        4.33205
O         -2.52967       -3.85639        4.98883
N         -2.35531       -2.27689        3.39000
S         -1.90923       -2.23972        1.76878
O         -2.85015       -3.12545        1.11874
O         -1.82707       -0.88023        1.28391
C         -0.29627       -3.04933        1.58223
C         -0.12095       -4.41642        1.36182
C         -1.10035       -5.47825        1.47355
N         -2.05967       -5.71315        0.53254
N         -2.80996       -6.70144        1.00626
N         -2.25929       -7.00967        2.19034
C         -2.75159       -8.08508        3.00687
N         -1.17514       -6.28920        2.53865
C          1.20048       -4.62585        1.02418
N          1.88465       -3.48564        0.96189
N          1.21045       -2.59284        1.99704
C          2.05462       -1.27628        3.33543
N          0.13160       -1.12377        2.83889
H          0.70981        1.07555       -1.12983
H          0.83361       -0.67882       -0.92517
H          2.28158        0.37621       -0.73765
H          3.57885       -1.04433        0.62240
H          4.71034       -3.39315        0.49428
H          5.62928       -2.09863        1.35152
H          6.13419       -3.78795        1.45982
H         -0.13705       -4.00415        5.08627
H         -3.37023       -2.37190        3.39933
H         -1.95595       -8.82679        3.11299
H         -3.02925       -7.67989        3.98260
H         -3.62225       -8.53968        2.52803
H          1.68961       -5.55059        0.74511
H          2.37694       -1.68318        4.33219
H          2.98755       -0.72417        3.05605
H          1.45673       -0.38539        3.68612
