24

C          0.92411        0.13158        0.06234
C          0.54136        0.43014       -1.37372
O          1.23656       -0.48129       -2.23621
C          2.23696        0.03845       -2.98782
O          2.60048        1.20210       -3.03166
C          2.82566       -1.04660       -3.80557
C          1.88637       -1.84968       -4.65286
C          4.15234       -1.26396       -3.83046
C          5.20571       -0.56641       -3.06781
O          6.34559       -0.46484       -3.49747
O          4.77487       -0.18819       -1.84406
C          5.75079        0.52105       -1.08015
H          0.69882       -0.91088        0.31125
H          0.38195        0.78280        0.75371
H          1.99942        0.27070        0.21312
H         -0.53057        0.25771       -1.51600
H          0.73932        1.47937       -1.61723
H          1.98922       -1.56214       -5.70455
H          2.09863       -2.92028       -4.56119
H          0.83843       -1.70137       -4.37431
H          4.56063       -2.01044       -4.50546
H          6.50246       -0.17588       -0.69790
H          6.22377        1.31180       -1.67227
H          5.24316        0.98865       -0.23204
