37

N          0.87687       -0.25222       -0.43118
C          0.50396       -1.06302        0.75442
C          1.22149       -0.65991        2.06018
C          0.83207        0.67229        2.66169
C          1.08324        1.88186        2.01785
C          0.63111        3.09821        2.55981
C         -0.04143        3.17942        3.79042
N         -0.51031        4.38205        4.31410
C         -0.06418        5.68825        3.77683
C         -1.10964        6.35225        2.87441
Cl        -2.22811        7.39224        3.80715
C         -1.38605        4.43177        5.50870
C         -2.87850        4.24865        5.19330
Cl        -3.41778        2.55026        5.18390
C         -0.20615        1.95212        4.45168
C          0.19853        0.72499        3.90118
C         -1.01310       -1.07008        0.95995
O         -1.65886       -1.95810        1.49696
O         -1.62125        0.06782        0.55247
H          0.31970        0.60630       -0.39315
H          1.85403        0.02132       -0.36355
H          0.78976       -2.09228        0.50656
H          1.02843       -1.44844        2.80137
H          2.30837       -0.66695        1.90714
H          1.61779        1.90885        1.07291
H          0.81634        3.98109        1.95731
H          0.20694        6.35410        4.60633
H          0.87089        5.58824        3.21609
H         -0.61977        7.01432        2.15498
H         -1.70923        5.62178        2.32326
H         -1.04614        3.75415        6.29932
H         -1.28069        5.42678        5.96064
H         -3.47314        4.74255        5.96770
H         -3.15368        4.67400        4.22630
H         -0.66819        1.89784        5.43153
H         -0.00164       -0.18528        4.46349
H         -2.55401       -0.05287        0.82609
