12

C          1.09583       -0.05375       -0.01862
C          0.56553       -1.38936        0.48759
O          1.10951       -1.62523        1.79731
C         -0.97160       -1.41398        0.46907
F         -1.43360       -1.22998       -0.79216
F         -1.45314       -2.60298        0.89708
F         -1.50749       -0.44328        1.24095
H          0.78784        0.76420        0.64184
H          0.74095        0.15958       -1.03140
H          2.19118       -0.05409       -0.02847
H          0.93078       -2.19430       -0.15978
H          2.07938       -1.62981        1.72147
