40

N          1.13391       -0.39657        0.10235
C          0.86027        0.12360        1.43717
C          1.30918        1.57808        1.60343
C          0.60139        2.58313        0.68574
C         -0.91984        2.64544        0.86073
C         -1.37793        3.06808        2.26115
C         -0.95413        4.48606        2.66334
C         -1.51848        5.59449        1.76648
C         -3.04917        5.65469        1.72817
C         -3.69808        5.99638        3.07392
C         -3.38676        7.40428        3.59796
C         -3.80251        8.54327        2.66974
C         -5.29540        8.67437        2.56487
O         -5.99443        9.45572        3.18876
O         -5.84428        7.80080        1.70132
H          0.59984        0.12822       -0.58897
H          2.11513       -0.24204       -0.12719
H         -0.20651        0.01424        1.65714
H          1.39121       -0.49835        2.16572
H          1.16797        1.87132        2.65036
H          2.38938        1.64401        1.42163
H          1.03388        3.57598        0.85570
H          0.82437        2.34575       -0.36095
H         -1.33136        3.33186        0.11194
H         -1.35894        1.66930        0.62615
H         -2.46857        2.97716        2.31611
H         -0.99620        2.36155        3.00644
H         -1.25726        4.66146        3.70166
H          0.13925        4.55927        2.66659
H         -1.11658        6.55782        2.10008
H         -1.14668        5.46495        0.74362
H         -3.35433        6.38156        0.96806
H         -3.45067        4.69724        1.37817
H         -4.78274        5.87211        2.98228
H         -3.39173        5.26615        3.83161
H         -3.88888        7.52711        4.56578
H         -2.31261        7.48792        3.79995
H         -3.42374        9.49155        3.07008
H         -3.37071        8.45501        1.66810
H         -6.80794        7.96247        1.77600
