15

C          0.91088        0.01944       -0.05735
N          0.57454       -0.43773       -1.39561
C          0.64604       -1.79494       -1.67681
C          0.37774       -2.27989       -2.90119
I          0.48735       -4.30202       -3.28711
C          0.00978       -1.35349       -3.95211
C         -0.05471       -0.03589       -3.71871
C          0.25134        0.50739       -2.36794
O          0.20736        1.72059       -2.18707
H          0.46877       -0.65000        0.68742
H          0.54035        1.03270        0.12227
H          2.00031        0.01862        0.04706
H          0.92968       -2.44254       -0.85186
H         -0.21251       -1.74098       -4.94108
H         -0.32176        0.68386       -4.48139
