30

C          0.64076        0.07625        0.66262
C          0.39657        1.56198        0.42483
N          1.01274        2.16795       -0.78327
C          0.40146        3.49004       -1.05259
C          0.50676        4.56444        0.03339
C          2.52178        2.23026       -0.79779
C          3.02845        2.72813        0.54602
N          3.44878        3.14116        1.66082
C          3.18773        0.90691       -1.21016
C          2.49385       -0.07260       -1.94392
C          3.07651       -1.30908       -2.23397
C          4.38943       -1.56755       -1.85278
C          5.12543       -0.58245       -1.20274
C          4.53506        0.64557       -0.89097
H          0.29828       -0.52434       -0.18502
H          0.06978       -0.25224        1.53873
H          1.69078       -0.14476        0.86915
H         -0.69316        1.66988        0.33951
H          0.67436        2.09892        1.33876
H          0.80835        3.89437       -1.98726
H         -0.66482        3.32962       -1.25876
H          1.53304        4.91999        0.15718
H         -0.10168        5.43177       -0.24393
H          0.13747        4.21731        1.00331
H          2.83300        2.94908       -1.56806
H          1.46418        0.09856       -2.25465
H          2.49788       -2.07396       -2.74524
H          4.83931       -2.53325       -2.06693
H          6.15904       -0.77306       -0.92322
H          5.14499        1.38519       -0.37473
