31

C          1.01149       -0.00789        0.00835
C          0.41939       -0.49752        1.34290
C          0.91848        0.43483        2.47197
C         -1.14157       -0.42270        1.37264
O         -1.86210       -1.37291        1.68098
C         -1.84919        0.86476        1.17291
C         -1.72760        1.66262        0.03774
C         -2.44304        2.85812       -0.03527
C         -3.27200        3.20053        1.02154
N         -3.43534        2.43419        2.12037
C         -2.73343        1.27518        2.16479
C          0.93168       -1.94635        1.51598
C          2.06036       -2.27235        2.28408
C          2.52366       -3.58634        2.34409
C          1.85227       -4.55441        1.62279
N          0.77767       -4.29523        0.85526
C          0.34521       -3.01094        0.82183
H          0.95206        1.08033       -0.09146
H          0.49571       -0.45735       -0.84822
H          2.07548       -0.26199       -0.07948
H          0.51555        1.44906        2.37265
H          0.61334        0.06177        3.45703
H          2.00909        0.54000        2.46749
H         -1.11925        1.36823       -0.80936
H         -2.36633        3.50374       -0.90398
H         -3.85139        4.11979        1.00648
H         -2.90847        0.66902        3.05095
H          2.61260       -1.52026        2.83879
H          3.39501       -3.84454        2.93535
H          2.17312       -5.59156        1.63910
H         -0.52361       -2.86588        0.18378
