27

C          1.22107        0.03528       -0.02394
O          0.64351       -1.14233        0.53237
C          0.87419       -2.25737       -0.22585
C         -0.23514       -3.03659       -0.54164
C         -0.08016       -4.21371       -1.27528
C          1.19270       -4.64047       -1.67526
C          1.36416       -5.94023       -2.42455
C          1.41861       -7.16079       -1.50998
C          0.06308       -7.54768       -0.95176
C         -0.90126       -8.24207       -1.87778
O         -0.26061       -7.27641        0.20480
C          2.30638       -3.85986       -1.33173
C          2.14837       -2.67245       -0.60874
H          0.81632        0.89248        0.52310
H          0.94925        0.15146       -1.07909
H          2.30796        0.04408        0.10071
H         -1.22378       -2.72978       -0.21221
H         -0.96283       -4.80410       -1.50764
H          0.56196       -6.03699       -3.16623
H          2.29728       -5.89202       -3.00109
H          1.79787       -8.02508       -2.06813
H          2.10763       -7.00393       -0.67195
H         -1.64553       -8.78239       -1.28511
H         -1.40383       -7.50714       -2.51001
H         -0.36943       -8.96950       -2.49603
H          3.30903       -4.17770       -1.60930
H          3.02809       -2.10434       -0.32384
