23

C          1.06143       -0.05498        0.13404
C          0.20400       -1.01335        0.51436
C         -1.27011       -0.97314        0.22388
N         -1.63675       -2.14405       -0.56700
C         -2.35697       -3.21506        0.11850
C         -3.79304       -3.20641       -0.31740
C         -4.44186       -4.28263       -0.78556
C         -1.28757       -2.14479       -1.91744
O         -0.78475       -1.14966       -2.45508
C         -1.56743       -3.36676       -2.77241
Cl        -0.49452       -4.71016       -2.33935
H          0.72464        0.81620       -0.42184
H          2.12422       -0.13566        0.33732
H          0.58814       -1.88130        1.04335
H         -1.82774       -0.96022        1.16672
H         -1.54663       -0.06807       -0.32874
H         -1.87776       -4.17505       -0.07950
H         -2.31287       -3.05719        1.20218
H         -4.32774       -2.26157       -0.24611
H         -5.47893       -4.21755       -1.10164
H         -3.95460       -5.25007       -0.87561
H         -2.61050       -3.67507       -2.71972
H         -1.35610       -3.11491       -3.81643
