27

C          0.90763        0.05019       -0.13794
C          0.70924        0.34188       -1.62395
N          1.04654       -0.80468       -2.47875
C         -0.03194       -1.35778       -3.30891
C          0.09617       -1.05685       -4.79539
C          2.37830       -1.20521       -2.50497
O          3.26263       -0.56156       -1.93174
C          2.76452       -2.49934       -3.19645
C          2.72691       -3.68266       -2.24414
C          1.33055       -4.19290       -2.06908
O          0.68220       -4.81006       -2.90035
O          0.78103       -3.83209       -0.89678
H          0.42602       -0.88911        0.15224
H          0.48545        0.85790        0.46830
H          1.96831       -0.02725        0.12119
H         -0.33679        0.62509       -1.78347
H          1.32567        1.19636       -1.92399
H         -0.08137       -2.43353       -3.16132
H         -0.99215       -0.96491       -2.95558
H          0.97188       -1.52906       -5.24574
H         -0.78091       -1.44396       -5.32544
H          0.16970        0.01742       -4.98185
H          2.17725       -2.68741       -4.09197
H          3.79843       -2.36014       -3.54097
H          3.31309       -4.51173       -2.65835
H          3.16234       -3.44466       -1.26805
H         -0.13884       -4.16625       -0.93790
