19

C          0.91401        0.07484        0.14299
C          0.27846        0.79492       -0.79680
C         -1.22177        0.86386       -0.85919
C          1.04316        1.56354       -1.80344
C          0.70374        2.88996       -2.10529
C          1.41724        3.61066       -3.06759
C          2.47631        3.01220       -3.74572
C          2.82244        1.69339       -3.46307
C          2.10986        0.97410       -2.49967
H          0.36279       -0.48796        0.89000
H          1.99720        0.03887        0.21023
H         -1.58480        1.85468       -0.56838
H         -1.57679        0.64255       -1.87163
H         -1.68809        0.13496       -0.18690
H         -0.11038        3.38553       -1.58282
H          1.14539        4.64036       -3.28441
H          3.03018        3.57244       -4.49425
H          3.64444        1.22049       -3.99381
H          2.38741       -0.05967       -2.30701
