25

O          1.15747        0.29877       -0.00837
N          2.39856        0.25203       -0.03570
O          3.14408        0.59996        0.88816
C          3.00169       -0.15346       -1.29361
C          2.53803        0.45244       -2.47289
O          1.49474        1.33748       -2.53515
C          3.15259        0.16047       -3.68673
C          4.20631       -0.74938       -3.73048
C          4.64064       -1.37841       -2.55971
C          4.04577       -1.10130       -1.31318
C          4.51202       -1.84258       -0.13102
C          5.79088       -1.61451        0.40142
C          6.23867       -2.32671        1.51636
C          5.41545       -3.27917        2.11229
C          4.14558       -3.52204        1.59406
C          3.69726       -2.81088        0.47849
H          0.93782        1.25610       -1.73358
H          2.80593        0.63722       -4.60069
H          4.68321       -0.98138       -4.68036
H          5.44957       -2.10616       -2.62612
H          6.44517       -0.86735       -0.04351
H          7.22802       -2.13267        1.92266
H          5.76250       -3.82992        2.98277
H          3.50242       -4.26490        2.05913
H          2.70494       -3.02501        0.08640
