48

C          1.27595       -0.50644        0.30545
C          1.14535        0.46946        1.46705
C          1.63312        1.88929        1.15709
C          1.05509        2.52935       -0.10479
C         -0.46840        2.50400       -0.20318
C         -1.21791        3.55395        0.61966
C         -1.07318        5.00323        0.14083
C         -1.39009        5.27128       -1.33384
O         -2.72455        5.65887       -1.60931
C         -3.77798        4.70966       -1.56858
O         -5.01547        5.43592       -1.74597
C         -5.23807        5.93298       -3.08436
C         -4.30903        7.10308       -3.47251
O         -4.58449        7.57196       -4.79418
C         -5.26621        4.76718       -4.09279
O         -5.53676        5.16190       -5.43524
C         -3.98386        3.94134       -4.01550
O         -2.84544        4.65293       -4.51870
C         -3.75552        3.50918       -2.56461
O         -2.57404        2.71671       -2.50558
H          0.63511       -0.22703       -0.53644
H          0.97295       -1.50924        0.62341
H          2.30849       -0.55868       -0.05220
H          0.10158        0.49840        1.79989
H          1.72359        0.08415        2.31493
H          1.41910        2.53058        2.01986
H          2.72547        1.86833        1.05293
H          1.42679        3.55634       -0.19467
H          1.45834        1.99660       -0.97587
H         -0.70144        2.61700       -1.25836
H         -0.86120        1.51858        0.06433
H         -2.28020        3.28910        0.62770
H         -0.88973        3.49697        1.66505
H         -1.70263        5.64253        0.77244
H         -0.03565        5.30860        0.32558
H         -0.80117        6.15575       -1.60861
H         -1.04809        4.49902       -2.02022
H         -3.81694        4.30872       -0.55206
H         -6.25229        6.35329       -3.08352
H         -4.44441        7.93236       -2.77016
H         -3.25304        6.83665       -3.45054
H         -3.84367        8.16097       -5.02778
H         -6.09051        4.10268       -3.80239
H         -5.03195        5.99118       -5.58311
H         -4.07307        3.05835       -4.65958
H         -2.06043        4.18910       -4.17877
H         -4.58933        2.85252       -2.28057
H         -2.73307        1.90500       -3.02661
