33

C         -0.21459       -0.71559       -0.56701
C         -0.04089        0.72383        0.38022
C          0.88231        2.65023       -0.08860
N         -1.39009        0.51606        1.19509
C         -1.52863        0.15375        2.49930
N         -2.71227       -0.18516        2.92351
N         -0.54321        0.11605        3.43419
C          0.76255        0.39378        3.72637
N          1.32196       -0.13593        4.78062
N          1.58531        1.19562        2.99016
C          1.27196        1.73647        1.72918
C         -0.33448        2.53294        1.57465
C         -1.18212        2.54573       -0.02867
C         -0.42167        1.78005       -1.45051
Cl        -1.23115        1.82966       -2.96671
C          1.23491        1.04986       -1.32597
C          2.07587        0.98468        0.26982
H         -0.83120       -0.60134       -1.46052
H         -0.72809       -1.47057        0.04670
H          0.75316       -1.17974       -0.80223
H          0.53597        0.07458        1.07998
H          0.98780        3.06467       -1.14618
H          0.52476        3.66017        0.30256
H          1.96680        2.89803        0.16013
H         -2.18306        0.35629        0.58664
H         -3.37707       -0.08881        2.15360
H         -1.00386       -0.27193        4.24743
H          0.65314       -0.73561        5.26866
H          2.56358        1.00636        3.16583
H         -0.84846        2.89811        2.46196
H         -2.16963        2.99402       -0.10329
H          1.69124        0.60887       -2.21036
H          2.99671        0.41754        0.38008
