28

N          0.86295       -0.01559        0.00699
C          0.36636        1.36078       -0.07702
C          0.80359        2.09875       -1.35937
N          0.50505        1.32784       -2.56849
C          1.00079        1.97402       -3.79289
C          2.53985        1.98816       -3.95682
N          3.12711        0.65825       -3.75969
C          4.59593        0.67995       -3.81776
C          5.27116        1.23949       -2.54548
N          4.63978        0.75569       -1.30961
H          0.39932       -0.56943       -0.71381
H          1.85928       -0.04894       -0.19898
H         -0.72741        1.33999       -0.01710
H          0.72570        1.91836        0.79488
H          0.29055        3.06660       -1.39780
H          1.87641        2.30007       -1.28418
H          0.90768        0.39499       -2.51059
H          0.57089        1.42722       -4.64121
H          0.61314        2.99740       -3.86398
H          2.77342        2.34614       -4.96657
H          2.96520        2.70847       -3.24968
H          2.88100        0.29551       -2.83966
H          4.92080       -0.36068       -3.93947
H          4.94960        1.21790       -4.70498
H          6.32780        0.95218       -2.54659
H          5.23095        2.33453       -2.55041
H          5.22445        1.02622       -0.51723
H          3.76442        1.25555       -1.17955
