19

O          2.30831       -1.24889       -1.16499
C          2.11317       -0.26303       -0.48416
O          1.07893       -0.08912        0.36252
C          3.00189        0.97814       -0.49493
O          2.42450        2.05773       -0.62721
N          4.35450        0.93022       -0.26704
C          5.25105       -0.07148        0.16908
C          4.89455       -1.38273        0.48623
C          5.85815       -2.29453        0.94206
C          7.18264       -1.89958        1.10371
Cl         8.34716       -3.02243        1.68608
C          7.56343       -0.59795        0.80710
C          6.60401        0.30387        0.34105
Cl         7.12694        1.92339        0.00268
H          1.01948        0.85320        0.63956
H          4.77707        1.84969       -0.37877
H          3.88462       -1.76283        0.40926
H          5.55754       -3.31542        1.17351
H          8.59542       -0.28479        0.94224
