36

C          0.78895       -0.58510        0.84253
C          0.07397        0.75375        0.73070
C          0.40701        1.46971       -0.57691
C         -0.36571        0.95211       -1.79842
C         -1.58909        1.77200       -2.23027
C         -1.45018        3.30261       -2.31671
C         -0.86030        3.90648       -3.56888
C         -1.85518        4.51849       -4.50894
O         -1.55424        5.21454       -5.47635
C          0.43045        4.07593       -3.91699
C          1.62492        3.57652       -3.23586
C          2.29303        4.32816       -2.26600
C          3.45985        3.82970       -1.67556
C          3.95635        2.57840       -2.04436
C          3.30450        1.83451       -3.02439
C          2.15686        2.34401       -3.63273
H          0.46609       -1.27895        0.06152
H          0.58496       -1.04353        1.81462
H          1.87351       -0.45458        0.75558
H         -1.00780        0.62175        0.83778
H          0.40519        1.38437        1.56509
H          0.25674        2.53865       -0.42340
H          1.47913        1.35027       -0.76387
H          0.31136        0.88085       -2.65024
H         -0.69227       -0.08096       -1.62437
H         -1.93996        1.38356       -3.19614
H         -2.39099        1.55166       -1.51338
H         -2.47501        3.69085       -2.21901
H         -0.95044        3.72251       -1.44144
H         -2.91113        4.30927       -4.27715
H          0.67936        4.60980       -4.83587
H          1.92691        5.31000       -1.97695
H          3.98619        4.41867       -0.92858
H          4.85187        2.18385       -1.57117
H          3.68023        0.85614       -3.31150
H          1.66022        1.75892       -4.40400
