24

C          1.11455       -0.16479        0.24884
C          0.64525        1.26911        0.44237
C          1.09262        2.21970       -0.67810
C          0.56780        1.87065       -2.08472
C         -0.95220        1.87065       -2.08472
N         -2.21317        1.87065       -2.08472
C          1.07294        2.84534       -3.16502
C          2.59518        2.91492       -3.33530
C          3.24253        1.57157       -3.63584
H          0.63597       -0.63106       -0.61736
H          0.85917       -0.76477        1.12840
H          2.19932       -0.20890        0.11205
H         -0.44461        1.28531        0.55009
H          1.05357        1.64196        1.38992
H          0.77002        3.23483       -0.41101
H          2.18827        2.23299       -0.68416
H          0.88538        0.85726       -2.35426
H          0.63055        2.56589       -4.13104
H          0.70418        3.85699       -2.94891
H          2.81681        3.60096       -4.16182
H          3.05882        3.35199       -2.44420
H          2.77785        1.09629       -4.50533
H          4.30717        1.70734       -3.85177
H          3.16534        0.88886       -2.78432
