21

C          1.28938       -0.27234       -0.01049
C          0.63801        0.45125       -0.93335
C         -0.85623        0.60292       -0.99709
O         -1.25210        1.97683       -1.07800
C         -1.32617        2.80254       -0.01299
C         -0.69575        2.37118        1.27681
O         -1.84605        3.90997       -0.12514
O         -1.37266       -0.17920       -2.09641
C         -1.39770        0.17545       -3.39550
C         -0.51364        1.28552       -3.88035
O         -2.06314       -0.48103       -4.19518
H          0.76542       -0.82323        0.76597
H          2.37381       -0.34044       -0.02003
H          1.22275        0.97276       -1.68553
H         -1.32908        0.15790       -0.11554
H          0.39205        2.37957        1.18172
H         -0.96762        3.09087        2.05649
H         -1.06431        1.39907        1.60576
H          0.49010        0.89763       -4.06879
H         -0.92449        1.66582       -4.82207
H         -0.46980        2.14018       -3.21072
