42

N          0.71196       -0.84262       -0.72550
C         -0.06111       -0.81834        0.42899
N          0.24122        0.14030        1.32724
C         -0.51746        0.23755        2.42490
N         -1.59013       -0.51043        2.75585
C         -1.85279       -1.48579        1.87119
C         -1.14338       -1.68980        0.69135
N         -1.69660       -2.72166       -0.02626
C         -2.68652       -3.16684        0.72034
N         -2.85282       -2.44783        1.89185
C         -4.04850       -2.61014        2.73989
O         -3.95286       -3.70022        3.71897
C         -4.68734       -3.33205        4.94505
C         -4.04898       -3.98259        6.25307
O         -4.49370       -3.56333        7.58058
P         -5.21649       -1.99295        7.51447
O         -6.60040       -2.56584        7.80186
O         -4.54671       -1.57872        8.93830
O         -5.93929       -0.42257        7.44836
C         -4.86764       -1.78771        4.90935
O         -4.11767       -1.10231        5.99829
P         -2.41441       -0.98447        5.71915
O         -2.33944       -2.13175        4.75290
O         -2.60310        0.45151        5.01611
O         -0.71115       -0.86663        5.44002
C         -4.70409       -1.39416        3.43072
O         -4.18711       -0.09584        3.20557
H          0.22633       -1.21259       -1.53254
H          1.21296        0.03069       -0.84457
H         -0.22499        1.00043        3.14373
H         -3.34064       -3.98541        0.44986
H         -4.80275       -2.98201        2.03165
H         -5.68090       -3.78021        4.81885
H         -4.20622       -5.06587        6.19892
H         -2.96170       -3.86377        6.24797
H         -3.70858       -1.09997        8.83707
H         -6.56096       -0.44622        8.20381
H         -5.91669       -1.56741        5.14424
H         -2.88015        0.33691        4.07812
H         -0.63727       -1.23197        4.53245
H         -5.72132       -1.35112        3.01650
H         -4.10141        0.04326        2.24213
