16

C          0.78598       -0.39079       -0.25665
C          0.45737       -0.96291        1.11379
C          1.09646       -0.19392        2.26698
O          0.48759        1.10385        2.40809
C          0.97300        2.26189        1.90150
N          2.14064        2.20721        1.21172
O          0.38355        3.32674        2.03714
H          0.37632        0.61606       -0.37931
H          0.35269       -1.01918       -1.04100
H          1.86787       -0.35158       -0.41724
H         -0.63229       -0.96066        1.23485
H          0.79284       -2.00520        1.15011
H          0.88834       -0.72853        3.20092
H          2.18581       -0.14018        2.18402
H          2.43729        3.06923        0.77601
H          2.63700        1.36466        0.98486
