26

O         -1.26580        0.31317        1.96431
C         -0.31826        0.16068        1.19618
O          0.60845        1.15890        1.08003
C          1.86396        0.98389        0.40805
C          1.77503        0.00679       -0.73743
C          1.15470       -1.25537       -0.19448
N         -0.15056       -0.96654        0.36410
N         -0.95382       -2.07859        0.55656
C         -2.25003       -1.96836        0.45743
C         -3.03199       -0.88346       -0.07936
C         -2.76668        0.12414       -0.99392
C         -3.93410        0.92438       -1.08410
C         -4.83986        0.33784       -0.23455
N         -6.17705        0.69285        0.12108
O         -6.78684       -0.05010        0.90047
O         -6.62537        1.72452       -0.39821
O         -4.33090       -0.77845        0.34952
H          2.59973        0.66400        1.15416
H          2.17762        1.96546        0.03838
H          2.76524       -0.18755       -1.16086
H          1.13898        0.41958       -1.52972
H          1.77622       -1.69191        0.59657
H          1.04036       -1.99389       -0.99560
H         -2.83429       -2.84264        0.79279
H         -1.83349        0.27235       -1.51972
H         -4.09017        1.81389       -1.67904
