59

C          1.16467        0.11930       -0.06614
N          0.26033        0.98218        0.68689
C         -0.34723        2.07041       -0.08437
C          0.65862        1.38898        1.97155
C         -0.32116        1.76248        2.90197
C          0.01176        2.15901        4.20174
C          1.34822        2.23599        4.61302
C          1.73780        2.64998        6.04039
C          1.62851        4.16358        6.28322
C          2.73371        4.88665        6.75300
C          2.60664        6.23479        7.13940
C          1.38730        6.92509        7.08717
N          1.22540        8.22079        7.57855
C          2.37607        9.04843        7.92323
C         -0.02231        8.93789        7.32701
C          0.30518        6.19514        6.56581
C          0.42112        4.85449        6.16871
C          1.08423        1.77185        7.12605
C          0.51219        2.28946        8.29123
C         -0.06307        1.45224        9.26305
C         -0.08876        0.05513        9.13841
N         -0.63023       -0.77606       10.12523
C         -1.60501       -0.24785       11.07885
C         -0.77836       -2.20241        9.83480
C          0.53168       -0.45206        7.98520
C          1.10320        0.37581        7.00354
C          2.33609        1.86634        3.68785
C          1.99204        1.43499        2.39674
H          0.65325       -0.26975       -0.95418
H          1.46261       -0.75085        0.52985
H          2.05770        0.65571       -0.40346
H         -1.29677        2.39278        0.35630
H          0.32525        2.93371       -0.15313
H         -0.57175        1.74039       -1.10505
H         -1.37151        1.70752        2.62787
H         -0.79540        2.38139        4.89479
H          2.80855        2.41218        6.14068
H          3.69988        4.40286        6.86851
H          3.50447        6.71369        7.52060
H          2.85318        9.44101        7.01965
H          2.06466        9.90146        8.53806
H          3.11534        8.51376        8.52650
H         -0.21861        9.02511        6.25256
H         -0.86576        8.43688        7.81556
H          0.00748        9.95434        7.73503
H         -0.68080        6.63847        6.48448
H         -0.48070        4.35261        5.82998
H          0.50364        3.35904        8.49075
H         -0.47101        1.94900       10.13568
H         -2.59656       -0.17827       10.61877
H         -1.67991       -0.91689       11.94440
H         -1.33164        0.72491       11.49461
H         -1.40385       -2.36479        8.94961
H          0.19833       -2.67663        9.69091
H         -1.25467       -2.72854       10.67010
H          0.59398       -1.52196        7.80828
H          1.56396       -0.09480        6.13733
H          3.38739        1.89132        3.96548
H          2.79903        1.15549        1.72615
