20

N          0.95777        0.10839       -0.15050
C          0.21822        0.49059       -1.22757
O         -1.00520        0.53585       -1.14305
N          0.99660        0.78358       -2.32308
N          0.35850        1.38889       -3.21330
C          1.18768        1.71659       -4.38185
C          1.85681        3.03014       -4.18210
C          1.44503        4.34066       -4.34436
C          2.53817        5.16158       -3.96447
C          3.53697        4.29170       -3.59693
N          4.86246        4.51315       -3.11245
O          5.55523        3.52290       -2.84460
O          5.21287        5.69565       -2.99656
O          3.14694        2.99588       -3.72821
H          0.47684       -0.09471        0.71230
H          1.96461        0.11744       -0.19385
H          1.92536        0.92929       -4.58176
H          0.53716        1.77056       -5.26186
H          0.46813        4.66047       -4.68336
H          2.58778        6.24191       -3.95126
