23

O         -0.03688       -0.14163        0.22008
C          0.12278       -1.32400        0.99694
C          0.94951       -2.37231        0.25029
O          2.35400       -2.21934        0.46515
C          2.98921       -1.27813       -0.37722
F          2.67026       -1.59099       -1.65969
O          2.62600        0.06572       -0.17212
C          3.73456        0.72852       -0.75143
F          3.89549        1.90847       -0.12142
F          3.46757        0.97242       -2.04967
O          4.94646       -0.00286       -0.66575
C          4.52383       -1.28599       -0.22152
O          5.08410       -1.65313        1.03382
C          4.71928       -0.83612        2.11993
F          5.08079        0.43927        1.89561
F          3.39515       -0.88177        2.34180
F          5.35423       -1.27572        3.22353
H          0.83607        0.28951        0.16931
H          0.58007       -1.05260        1.95353
H         -0.88235       -1.71302        1.18379
H          0.69924       -3.35525        0.66346
H          0.71426       -2.39234       -0.81917
H          4.92908       -2.01601       -0.93085
