29

C          0.93075       -0.21339        0.09294
C          0.45719        1.17173        0.38795
C         -0.37740        1.86787       -0.39949
C         -0.80846        3.28060       -0.09965
C         -0.25892        4.37385       -1.06226
C          0.89050        3.92279       -1.98340
C          0.29757        5.49826       -0.21118
O          1.19369        5.27859        0.60869
N         -0.21596        6.76160       -0.42468
C          0.32588        7.87425        0.33634
C         -1.22460        7.06370       -1.33169
O         -1.60777        8.22116       -1.48434
N         -1.79812        6.05831       -2.05497
C         -1.36806        4.86142       -1.93179
O         -1.96798        3.92850       -2.68517
H          0.56378       -0.57956       -0.87080
H          0.59335       -0.89952        0.87526
H          2.02491       -0.23098        0.06795
H          0.84876        1.62606        1.29677
H         -0.77074        1.41717       -1.30917
H         -1.90761        3.28759       -0.10378
H         -0.54881        3.51417        0.94177
H          1.75038        3.55778       -1.41024
H          0.57968        3.13108       -2.67452
H          1.24682        4.75737       -2.60046
H          0.75531        8.60334       -0.35870
H         -0.48643        8.35824        0.88853
H          1.09847        7.56572        1.04501
H         -2.65868        4.36689       -3.21420
