52

C         -0.16626        0.06571        1.90779
C          0.09897        1.54637        2.12806
C          1.11256        2.11655        1.14207
C          0.51739        2.70247       -0.13559
O         -0.35934        3.56718       -0.10273
N          1.14391        2.41474       -1.32547
C          1.84258        1.24642       -1.64733
C          3.02132        1.33081       -2.37056
C          3.78155        0.17461       -2.56091
C          3.35242       -1.08160       -2.08950
O          4.34214       -2.01391       -2.19931
C          4.42230       -3.11772       -1.30203
C          4.72252       -2.83554        0.18466
O          3.98987       -1.72326        0.70066
C          4.34792       -4.07062        1.04454
N          5.00096       -5.31311        0.61337
C          4.65017       -6.46512        1.45732
C          3.21163       -6.94056        1.23098
C          5.62121       -7.59497        1.10739
C          2.07032       -1.18697       -1.54013
C          1.34281       -2.43491       -1.18021
C          1.28574       -3.57844       -2.15816
O          0.69296       -2.47805       -0.13643
C          1.34577       -0.00740       -1.29075
H         -0.77785       -0.09479        1.01657
H         -0.70829       -0.35588        2.75964
H          0.77016       -0.49251        1.80231
H         -0.84674        2.09719        2.09759
H          0.50648        1.66106        3.13997
H          1.60140        2.97484        1.62581
H          1.92375        1.40998        0.95066
H          1.04178        3.12829       -2.03767
H          3.40996        2.28975       -2.70298
H          4.75691        0.26050       -3.03879
H          3.56406       -3.76933       -1.41867
H          5.25816       -3.72005       -1.68177
H          5.78558       -2.60020        0.30904
H          4.36763       -0.91920        0.30415
H          4.60721       -3.85250        2.08813
H          3.25622       -4.17885        1.02010
H          4.74402       -5.53688       -0.34675
H          4.79111       -6.21343        2.51512
H          3.02118       -7.15559        0.17310
H          3.01553       -7.85820        1.79649
H          2.48142       -6.19535        1.56099
H          6.65928       -7.28648        1.27418
H          5.43224       -8.47512        1.73119
H          5.52359       -7.90032        0.05878
H          1.57666       -4.49897       -1.64074
H          0.26075       -3.69026       -2.51992
H          1.94309       -3.42344       -3.01554
H          0.35500       -0.07940       -0.84978
