37

C          1.23826        0.09011        0.12072
C          0.71579        1.42379        0.63386
N          1.07372        2.47381       -0.30902
C          0.43662        3.75773       -0.03800
C          0.86284        4.44502        1.28959
C          2.37663        4.71249        1.32966
C          2.55234        5.84796        0.31798
C          1.12028        6.08783       -0.19730
C          0.31305        5.85744        1.08455
C          0.62969        4.91467       -1.10221
C          1.38846        4.65858       -2.39560
C          2.23628        5.62139       -2.96747
C          2.91399        5.37313       -4.16552
C          2.73313        4.16796       -4.83508
C          1.85347        3.22285       -4.31988
C          1.17546        3.47686       -3.12467
H          0.83707       -0.13544       -0.87389
H          0.93602       -0.71850        0.79392
H          2.33144        0.08847        0.05745
H         -0.37352        1.35294        0.73302
H          1.13688        1.62270        1.62476
H          2.08424        2.57218       -0.39385
H         -0.64774        3.57869        0.01127
H          0.49109        3.93972        2.18405
H          2.98667        3.84048        1.08073
H          2.68233        5.05401        2.32556
H          3.27331        5.58697       -0.45943
H          2.92664        6.74547        0.82528
H          0.97658        7.07492       -0.64404
H          0.58035        6.54644        1.89322
H         -0.77046        5.88373        0.92845
H         -0.38282        5.18646       -1.44214
H          2.39006        6.58568       -2.49084
H          3.58120        6.12685       -4.57540
H          3.26357        3.97158       -5.76224
H          1.68824        2.28618       -4.84498
H          0.47521        2.72604       -2.76259
