48

C          0.94670        0.20025        0.14568
C          0.45598        0.26433       -1.29727
C          0.95114       -0.89213       -2.19737
C          0.45424       -2.24574       -1.67232
C          0.44054       -0.64955       -3.62561
O          2.38827       -0.83789       -2.18092
O          2.87905       -1.93182       -3.01899
C          4.32206       -1.91562       -2.97497
C          4.82009       -0.59623       -3.57979
C          4.81687       -2.11551       -1.52543
C          4.34563       -3.42808       -0.90850
O          4.76571       -3.00824       -3.80751
O          6.22856       -3.01783       -3.80049
C          6.65635       -4.09467       -4.65255
C          6.19767       -5.43497       -4.05908
C          6.09933       -3.91551       -6.07136
C          8.20280       -4.06573       -4.65762
C          8.81137       -2.76353       -5.16791
H          0.55313       -0.67814        0.66513
H          0.60720        1.08558        0.69336
H          2.03937        0.17463        0.19742
H         -0.64044        0.29830       -1.29703
H          0.80618        1.21712       -1.71586
H         -0.63212       -2.24713       -1.53575
H          0.70279       -3.05726       -2.36563
H          0.92991       -2.50325       -0.72049
H          0.85434        0.27952       -4.03388
H          0.74979       -1.45159       -4.30480
H         -0.65245       -0.58814       -3.65505
H          4.46588        0.27216       -3.01512
H          5.91319       -0.55017       -3.61838
H          4.45316       -0.48884       -4.60701
H          5.91260       -2.09786       -1.49228
H          4.46984       -1.29410       -0.88764
H          4.71515       -4.28935       -1.47253
H          4.71901       -3.51489        0.11695
H          3.25413       -3.48336       -0.87270
H          5.10506       -5.51221       -4.03763
H          6.58318       -6.28186       -4.63632
H          6.53599       -5.53645       -3.02159
H          6.26776       -2.89821       -6.44002
H          6.55144       -4.62625       -6.77091
H          5.01483       -4.07178       -6.09571
H          8.56569       -4.21249       -3.63171
H          8.59288       -4.89714       -5.25750
H          8.45826       -1.90271       -4.59216
H          9.90187       -2.80203       -5.07657
H          8.57582       -2.59694       -6.22297
