74

C          1.18472       -0.58774       -0.01215
C          0.96878       -0.05878        1.39712
C          1.42185        1.39462        1.55272
C          0.68833        2.37686        0.63381
C         -0.82888        2.39133        0.84428
C         -1.23214        2.84026        2.25197
C         -0.77770        4.26824        2.56986
C         -1.38231        5.30267        1.61560
C         -2.91011        5.34156        1.69929
C         -3.39316        5.76664        3.08864
C         -2.95148        7.19267        3.43920
C         -3.47302        8.22954        2.43204
C         -5.00983        8.20621        2.33388
C         -5.66294        8.49117        3.70079
C         -5.17070        9.76957        4.39606
C         -5.52735       11.04735        3.64125
C         -7.03909       11.22710        3.48881
C         -7.71769       11.56346        4.81654
C         -7.31052       12.93728        5.35188
C         -7.68927       14.08550        4.41096
C         -9.19930       14.22384        4.19327
C         -9.99318       14.45008        5.48191
C         -9.53078       15.68305        6.24318
C         -5.58851        9.03936        1.20574
O         -6.76352        9.07318        0.88540
O         -4.69012        9.77669        0.52904
H          0.57917       -0.04580       -0.74515
H          0.90097       -1.64206       -0.06911
H          2.23638       -0.49672       -0.30100
H         -0.08674       -0.16622        1.67144
H          1.53080       -0.68011        2.10298
H          1.29505        1.69523        2.59971
H          2.49735        1.46308        1.35274
H          1.10297        3.37985        0.78656
H          0.90055        2.14289       -0.41454
H         -1.28528        3.04292        0.09076
H         -1.25393        1.40176        0.64842
H         -2.31939        2.75220        2.35571
H         -0.82487        2.15842        3.00531
H         -1.03689        4.50199        3.60790
H          0.31353        4.34392        2.53627
H         -0.95659        6.28678        1.83782
H         -1.08315        5.10268        0.58197
H         -3.29543        6.01603        0.92728
H         -3.34310        4.36840        1.44777
H         -4.48292        5.67090        3.13491
H         -3.03488        5.07792        3.85970
H         -3.28984        7.42912        4.45353
H         -1.85996        7.25981        3.49188
H         -3.10930        9.22420        2.71385
H         -3.02769        8.05314        1.44650
H         -5.31472        7.19726        2.03174
H         -6.75273        8.49267        3.60564
H         -5.45945        7.65198        4.37770
H         -5.58578        9.80057        5.40912
H         -4.08649        9.74033        4.54901
H         -5.07763       11.90211        4.15508
H         -5.05570       11.05510        2.65692
H         -7.23588       11.99644        2.73690
H         -7.50840       10.32832        3.08133
H         -8.80354       11.50992        4.68576
H         -7.48383       10.80304        5.56966
H         -7.76468       13.08152        6.33734
H         -6.23126       12.97152        5.53373
H         -7.27928       15.01965        4.80823
H         -7.20163       13.96205        3.43769
H         -9.37877       15.05844        3.50572
H         -9.58989       13.33255        3.68712
H        -11.05310       14.56072        5.22806
H         -9.92601       13.57109        6.13320
H         -9.59082       16.57299        5.60914
H        -10.15727       15.84235        7.12470
H         -8.49846       15.57987        6.59204
H         -5.23385       10.25349       -0.13266
