19

O          1.05258        0.70704        0.02822
C          2.19111        0.27216       -0.03473
C          2.96932        0.27733       -1.32787
O          4.19068        0.18727       -1.26626
C          2.18127        0.36928       -2.60721
C          1.33192       -0.85073       -2.85993
C         -0.05541       -0.72736       -3.01404
C         -0.84592       -1.85649       -3.23180
C         -0.25872       -3.11826       -3.29682
C          1.12093       -3.25186       -3.15453
C          1.91504       -2.12368       -2.94445
H          2.74713       -0.13571        0.82364
H          1.57782        1.28396       -2.57529
H          2.88199        0.49283       -3.44188
H         -0.53447        0.24816       -2.95524
H         -1.92186       -1.75097       -3.34555
H         -0.87691       -3.99720       -3.45962
H          1.57876       -4.23633       -3.20789
H          2.99199       -2.24859       -2.84418
