13

C          1.01696        0.04132        0.01776
S          0.26015        1.65206       -0.31536
C          1.09928        2.67187        0.96237
C          0.59421        2.32171        2.36274
N          2.60057        2.74755        0.87809
O          3.18388        2.06728        1.72997
H          0.63171       -0.68294       -0.70549
H          0.75893       -0.31218        1.01853
H          2.10276        0.08553       -0.09474
H          0.78573        3.70247        0.75815
H          0.89151        1.31576        2.67800
H          0.99652        3.02249        3.10420
H         -0.49832        2.38668        2.41820
