36

C          0.87959        0.23754        0.03047
C          0.37295       -0.85754        0.94903
O          1.11660       -0.85404        2.17823
C          2.24198       -1.60805        2.18710
O          2.67981       -2.24518        1.23083
C          2.85192       -1.58965        3.53713
C          1.86418       -1.72826        4.68410
N          1.04476       -1.84325        5.63561
C          4.19361       -1.57079        3.75187
C          5.15085       -1.36913        2.62697
C          6.15449       -2.32100        2.39438
C          7.10115       -2.12303        1.38761
C          7.05624       -0.97099        0.60580
C          6.06969       -0.01296        0.83326
C          5.12543       -0.20491        1.84474
C          4.72341       -1.75547        5.13729
C          5.54066       -0.77016        5.70841
C          6.08762       -0.95282        6.98092
C          5.82478       -2.12068        7.69438
C          5.02589       -3.11366        7.13257
C          4.48857       -2.93926        5.85551
H          0.80489        1.21347        0.52105
H          0.30057        0.26379       -0.89699
H          1.93461        0.08568       -0.21863
H         -0.67479       -0.67121        1.20596
H          0.41276       -1.83860        0.46086
H          6.21126       -3.22393        2.99865
H          7.87429       -2.86772        1.21666
H          7.79264       -0.81879       -0.17911
H          6.03871        0.88708        0.22466
H          4.37912        0.56668        2.01614
H          5.76914        0.14372        5.16427
H          6.72377       -0.18479        7.41363
H          6.24801       -2.26027        8.68596
H          4.82414       -4.02751        7.68615
H          3.88997       -3.74253        5.43094
