16

C          1.04289       -0.10344        0.02349
C          0.32699       -0.93868       -0.74060
C         -1.14308       -1.00411       -0.71626
C         -1.88278        0.18469       -0.84168
C         -3.27830        0.15577       -0.84976
Br        -4.24839        1.77035       -1.01319
C         -3.96253       -1.05123       -0.74273
C         -3.24374       -2.24119       -0.62974
C         -1.84311       -2.22090       -0.62056
Br        -0.95665       -3.89584       -0.44673
H          0.58102        0.58451        0.72483
H          2.12743       -0.10515       -0.02865
H          0.83548       -1.62672       -1.41187
H         -1.36670        1.13720       -0.94245
H         -5.04912       -1.07779       -0.74854
H         -3.78396       -3.18153       -0.54777
