33

C          0.91278       -0.45859       -0.14303
C          0.53224       -0.06552        1.27666
C          0.98790        1.34558        1.65602
C          0.33029        2.47697        0.86010
C         -1.16613        2.66640        1.10910
C         -1.60613        3.00807        2.54072
C         -1.07103        4.31008        3.17555
C          0.30597        4.12549        3.82922
C         -1.13183        5.51159        2.24429
C         -1.31362        6.67584        3.18981
C         -2.07257        6.04203        4.31636
O         -2.66380        6.64256        5.19787
O         -1.97581        4.67982        4.24091
H          0.37641        0.14074       -0.88415
H          0.66230       -1.50884       -0.32290
H          1.98775       -0.33461       -0.30966
H         -0.54918       -0.17188        1.41189
H          1.00364       -0.77517        1.96747
H          0.81227        1.49018        2.72700
H          2.07422        1.41290        1.51664
H          0.85460        3.41455        1.06730
H          0.48235        2.30498       -0.21173
H         -1.52729        3.44874        0.43053
H         -1.69545        1.75608        0.80146
H         -2.70437        3.06783        2.52620
H         -1.39684        2.16120        3.20661
H          0.29974        3.25762        4.49870
H          1.10705        3.99544        3.10061
H          0.57238        4.98147        4.45955
H         -0.25457        5.61874        1.59988
H         -2.01782        5.45350        1.59866
H         -1.89186        7.47949        2.72834
H         -0.35772        7.05470        3.56170
