21

C          3.40345        0.21887       -0.00061
C          3.06400       -1.13646        0.00213
C          1.72242       -1.54526        0.00269
C          0.71377       -0.56296        0.00117
C          1.09421        0.77507       -0.00015
C          2.41760        1.21103       -0.00179
O         -0.00029        1.58475        0.00069
C         -1.09388        0.77386        0.00177
C         -2.41775        1.20830        0.00372
C         -3.40249        0.21505        0.00306
C         -3.06152       -1.13992        0.00033
C         -1.71948       -1.54718       -0.00068
C         -0.71193       -0.56379        0.00053
H          4.45199        0.50956       -0.00158
H          3.85148       -1.88736        0.00380
H          1.46992       -2.60116        0.00474
H          2.66252        2.26607       -0.00370
H         -2.66387        2.26308        0.00562
H         -4.45135        0.50455        0.00450
H         -3.84815       -1.89168       -0.00089
H         -1.46579       -2.60281       -0.00265
