37

C          0.88391        0.91676        0.76149
C          0.37754        0.15647        1.74837
C         -1.09999       -0.10430        1.84689
C          1.23096       -0.42146        2.85138
N          1.94227       -1.61554        2.37902
C          3.34907       -1.49354        1.97632
C          4.27450       -1.51854        3.18306
C          1.31686       -2.84824        2.29407
C          1.12819       -3.69107        3.40854
N          1.58905       -3.29476        4.72579
O          2.58473       -3.88456        5.16723
O          0.90074       -2.47429        5.34582
C          0.54191       -4.97255        3.33083
C          0.08937       -5.46814        2.10408
C         -0.50228       -6.85420        1.99359
F          0.43094       -7.77864        1.64470
F         -1.05272       -7.28950        3.15849
F         -1.48539       -6.93320        1.05781
C          0.24442       -4.66145        0.97157
C          0.84671       -3.38835        1.07802
N          0.93525       -2.63221       -0.16103
O         -0.13696       -2.26997       -0.66637
O          2.05377       -2.51380       -0.67914
H          0.25094        1.33592       -0.01549
H          1.94572        1.12983        0.69282
H         -1.30601       -1.17852        1.84677
H         -1.49728        0.32358        2.77330
H         -1.65308        0.34042        1.01269
H          1.94922        0.33679        3.18841
H          0.60900       -0.64107        3.72402
H          3.64561       -2.30279        1.29976
H          3.49771       -0.55681        1.42850
H          4.27841       -2.50648        3.65128
H          5.30127       -1.29731        2.87513
H          3.97839       -0.78536        3.93939
H          0.45036       -5.58322        4.23100
H         -0.09859       -5.02038       -0.00069
