44

C          0.91741        0.04250        0.28813
C          0.34342        1.42595        0.01283
C          0.95701        2.12261       -1.19983
C          0.46338        1.63149       -2.54016
O          0.05315        2.37133       -3.42547
O          0.64269        0.29586       -2.67506
C          0.21311       -0.25098       -3.92753
N         -1.24071       -0.25634       -4.02470
C         -1.98474        0.25124       -5.06079
C         -3.29471        0.04403       -4.70239
C         -4.53396        0.37811       -5.32922
O         -4.60653        0.85570       -6.45625
N         -5.61820        0.08987       -4.51239
C         -6.93827        0.44732       -4.97859
O         -7.06245        1.86841       -5.10863
C         -7.12324        2.56546       -3.94939
O         -7.16970        2.05881       -2.83677
C         -7.17459        4.05161       -4.20994
C         -5.94017        4.60059       -4.92399
C         -5.95338        4.37726       -6.43052
C         -5.46711       -0.55924       -3.29391
N         -4.36089       -0.94401       -2.73663
C         -3.23328       -0.59260       -3.46810
N         -1.99507       -0.81787       -3.04607
H          0.54076       -0.69820       -0.42248
H          0.62415       -0.29324        1.28806
H          2.01081        0.04681        0.23958
H         -0.74505        1.35544       -0.09304
H          0.54091        2.04882        0.89417
H          0.69353        3.18668       -1.14329
H          2.05074        2.06531       -1.18830
H          0.64007        0.29827       -4.77370
H          0.53921       -1.29438       -3.97995
H         -1.53306        0.73584       -5.91540
H         -7.08213        0.02033       -5.97717
H         -7.72813        0.05172       -4.32945
H         -8.09908        4.28809       -4.74707
H         -7.24621        4.53765       -3.22866
H         -5.89724        5.68260       -4.74915
H         -5.02562        4.16970       -4.50028
H         -6.89551        4.71448       -6.87371
H         -5.13854        4.93750       -6.90049
H         -5.81048        3.32463       -6.68540
H         -6.41850       -0.76369       -2.77536
