42

C          2.53167       -0.18026       -0.55432
N          1.08684       -0.17785       -0.80563
C          0.52377        1.14096       -0.46451
C         -1.01680        1.20136       -0.30637
N         -1.65830        0.09218        0.40650
C         -1.89498        0.23683        1.86388
C         -0.63899        0.21390        2.74219
C         -0.31732       -0.94959        3.46675
C          0.84057       -1.01418        4.24558
C          1.69379        0.08318        4.32057
C          1.38297        1.25127        3.63057
C          0.22299        1.31676        2.85630
C         -2.93512        1.33096        2.19529
C         -2.84479        2.16684        3.32203
C         -3.82595        3.12309        3.60030
C         -4.94256        3.23783        2.77830
C         -5.08080        2.39297        1.68269
C         -4.09088        1.44876        1.39591
C         -1.09131       -1.19110       -0.02246
C          0.45002       -1.26031       -0.03651
H          3.02834        0.60607       -1.13261
H          2.76489       -0.01944        0.50645
H          2.97626       -1.13407       -0.85736
H          0.99051        1.52331        0.44492
H          0.80411        1.84537       -1.25837
H         -1.44031        1.20108       -1.32063
H         -1.30246        2.17257        0.11394
H         -2.45750       -0.66645        2.14918
H         -0.96362       -1.82348        3.41651
H          1.07814       -1.92486        4.78955
H          2.59850        0.03046        4.92015
H          2.04264        2.11259        3.69151
H         -0.00777        2.24472        2.33668
H         -2.01343        2.08983        4.01804
H         -3.71902        3.76926        4.46723
H         -5.70808        3.97576        3.00080
H         -5.96169        2.46259        1.04954
H         -4.22602        0.79149        0.53869
H         -1.44480       -1.37898       -1.04606
H         -1.49536       -2.01934        0.57209
H          0.73811       -2.21946       -0.48506
H          0.82643       -1.27732        0.98983
