38

O          1.20818        0.86829        0.36659
C          2.28190        0.33252        0.12635
O          2.89704        0.40288       -1.12701
C          4.29824        0.36097       -1.30635
C          4.94886        1.56918       -1.56157
C          6.33388        1.57738       -1.72315
C          7.05198        0.38348       -1.63210
C          6.38414       -0.82363       -1.40692
C          4.99608       -0.84291       -1.26393
C          2.98035       -0.44771        1.16460
C          4.06864        0.18509        1.79577
C          4.84006       -0.49858        2.73267
C          4.51134       -1.80478        3.07294
C          3.39820       -2.41756        2.49193
C          2.60363       -1.74962        1.53620
C          1.42673       -2.52562        1.03573
O          1.25740       -3.70072        1.34027
O          0.58686       -1.76472        0.25595
C         -0.68569       -2.28388       -0.05040
C         -1.11516       -2.17683       -1.37220
C         -2.40359       -2.59344       -1.71199
C         -3.25771       -3.09935       -0.72985
C         -2.82695       -3.18675        0.59495
C         -1.54036       -2.77027        0.94059
H          4.38558        2.49551       -1.63366
H          6.85514        2.51107       -1.92135
H          8.13359        0.39172       -1.74841
H          6.94977       -1.75020       -1.34574
H          4.48114       -1.78419       -1.10422
H          4.33767        1.20718        1.53401
H          5.70031       -0.01418        3.18883
H          5.11198       -2.34785        3.79958
H          3.15061       -3.43470        2.79854
H         -0.45857       -1.76227       -2.13077
H         -2.74748       -2.51356       -2.73989
H         -4.26338       -3.41652       -0.99481
H         -3.49676       -3.57065        1.36010
H         -1.22039       -2.82390        1.97651
