32

C         -0.01427        2.67989       -0.72840
N         -0.01655        1.27864       -0.30541
C         -1.26894        0.65811       -0.07156
C         -2.43172        1.40693        0.20025
C         -3.65297        0.79174        0.49603
C         -3.74523       -0.59309        0.52507
C         -2.61738       -1.36084        0.25065
C         -1.38788       -0.74767       -0.04179
S         -0.01280       -1.82417       -0.41158
C          1.36033       -0.74390       -0.05094
C          2.59523       -1.35377        0.21770
C          3.71272       -0.58678        0.53526
C          3.60964        0.80404        0.59399
C          4.79731        1.63920        1.00520
C          5.24677        1.37467        2.41944
O          6.31949        0.90037        2.75437
O          4.33493        1.72753        3.34764
C          2.37793        1.41072        0.29055
C          1.23172        0.65993       -0.04545
H         -0.85821        2.90472       -1.39213
H         -0.05775        3.34863        0.13829
H          0.87451        2.92888       -1.32091
H         -2.40449        2.49225        0.22596
H         -4.52632        1.40008        0.71684
H         -4.68885       -1.07580        0.76391
H         -2.69785       -2.44531        0.27202
H          2.68815       -2.43743        0.19553
H          4.65404       -1.08594        0.75725
H          5.63414        1.42974        0.32831
H          4.58879        2.71147        0.91145
H          4.73917        1.45779        4.19854
H          2.31194        2.49267        0.37091
