18

N          2.24446       -0.08254        0.19212
C          0.85752       -0.08352        0.08719
C          0.14693       -1.27778        0.12058
C         -1.24430       -1.24004        0.04623
C         -1.86978       -0.00236       -0.04938
S         -3.60911        0.14719       -0.16507
N         -4.01699        0.83430        1.31071
O         -3.92594        1.13336       -1.17089
O         -4.20270       -1.16893       -0.15513
C         -1.09175        1.13850       -0.08557
N          0.26217        1.11832       -0.01021
H          2.54657        0.88518        0.10566
H          2.67387       -0.67264       -0.51054
H          0.66681       -2.22527        0.21547
H         -1.81780       -2.16273        0.06856
H         -4.45767        1.74379        1.16502
H         -4.59304        0.18559        1.84937
H         -1.53027        2.12898       -0.17271
