30

C          0.58366       -0.05113        0.01225
C          0.49216       -1.51270        0.31848
C          1.60630       -2.24952        0.69462
C          1.44503       -3.59671        1.00010
C          0.17882       -4.13740        0.90298
N         -0.06512       -5.51324        1.15223
S          0.01194       -6.53247       -0.20746
O          0.13154       -7.88309        0.30895
O         -1.07576       -6.18750       -1.09249
C          1.53531       -6.12742       -1.02399
C          1.57075       -5.05251       -1.91608
C          2.78898       -4.66815       -2.47846
C          3.95351       -5.40235       -2.23305
N          5.19240       -4.91151       -2.66076
C          3.89499       -6.49161       -1.35603
C          2.68723       -6.87120       -0.76372
N         -0.88937       -3.41459        0.53149
N         -0.73188       -2.08437        0.24343
H          0.07607        0.52411        0.79277
H          0.10955        0.16257       -0.95074
H          1.62378        0.28619       -0.04180
H          2.58938       -1.79269        0.74745
H          2.29420       -4.20331        1.29287
H         -1.04388       -5.56169        1.44658
H          0.67211       -4.47640       -2.13012
H          2.82181       -3.78055       -3.10515
H          5.14160       -4.33265       -3.49355
H          5.91364       -5.62278       -2.73402
H          4.79768       -7.04911       -1.11717
H          2.66310       -7.72453       -0.08910
