20

C          0.99995        0.13926       -0.00134
N          0.48893        0.45519       -1.34857
C         -0.32430       -0.61206       -1.90497
C          0.81097        1.68785       -1.94736
S          1.79919        2.80296       -1.08742
N          0.34060        2.02458       -3.23388
C         -0.49862        1.28953       -4.17847
C          0.71408        3.33308       -3.80588
H          0.67557       -0.84680        0.34337
H          0.62658        0.87760        0.71538
H          2.09450        0.13955       -0.01448
H         -1.33860       -0.24033       -2.06981
H          0.15371       -0.99063       -2.81180
H         -0.41214       -1.46243       -1.22173
H         -1.38734        1.89641       -4.38553
H          0.06718        1.16511       -5.10873
H         -0.84771        0.31346       -3.89354
H          0.33156        4.13850       -3.17106
H          1.80237        3.39901       -3.90236
H          0.28442        3.46642       -4.80487
