36

C          0.99935       -0.01912       -0.06870
C          0.63560       -1.43759       -0.43659
O          0.18033       -2.17181        0.43749
N          0.78506       -1.86860       -1.79301
C          1.52286       -1.04277       -2.66985
O          2.73970       -0.51152       -2.36435
N          3.20064        0.24663       -3.41623
C          2.23809        0.20874       -4.34289
C          2.43065        0.91296       -5.63336
C          1.12516       -0.56938       -3.90703
C         -0.15574       -0.79167       -4.61871
S          0.62509       -3.52342       -2.11156
O          1.48681       -4.26078       -1.21117
O         -0.80904       -3.76549       -2.14653
C          1.19512       -4.00838       -3.74042
C          2.32440       -3.48448       -4.36572
C          2.63385       -3.87058       -5.67825
C          1.91595       -4.88148       -6.32366
N          2.13567       -5.15649       -7.67669
C          0.82677       -5.44985       -5.66466
C          0.47042       -5.02367       -4.38296
H          0.55208        0.22314        0.90129
H          0.60987        0.69207       -0.80051
H          2.08352        0.07562        0.02870
H          2.55723        0.18447       -6.44098
H          1.56719        1.54318       -5.86590
H          3.31961        1.55259       -5.61525
H         -0.43702       -1.84707       -4.62273
H         -0.95779       -0.22667       -4.13352
H         -0.09400       -0.46464       -5.66120
H          2.97749       -2.76999       -3.87841
H          3.45730       -3.37902       -6.19158
H          1.82942       -6.08197       -7.96344
H          3.07299       -4.94509       -8.00278
H          0.23786       -6.22814       -6.14387
H         -0.37334       -5.50191       -3.88697
