27

C          1.03047        1.49501        2.07056
C          0.58378        0.11328        2.50816
S          1.83742       -0.94348        3.32423
C          3.26498       -0.94340        2.16459
C          3.55771       -2.33925        1.58699
O          2.99784       -2.55126        0.28868
P          1.26784       -2.55126        0.28868
S          1.37686       -0.95719       -0.99623
O          1.26609       -4.00716       -0.48580
C          1.89911       -4.18378       -1.74151
O         -0.46216       -2.55126        0.28868
C         -1.26764       -2.49534       -0.87453
H          1.30320        2.11543        2.93052
H          0.20033        1.99374        1.55561
H          1.86631        1.47570        1.37168
H         -0.23277        0.22849        3.22708
H          0.15030       -0.43040        1.66888
H          3.15767       -0.19695        1.37499
H          4.11792       -0.64494        2.78026
H          4.64060       -2.44082        1.46052
H          3.23726       -3.14988        2.25301
H          2.72156       -3.48563       -1.91228
H          2.30629       -5.19733       -1.78156
H          1.16053       -4.07582       -2.54000
H         -1.57748       -1.45784       -1.04326
H         -0.76768       -2.88928       -1.75996
H         -2.17510       -3.07695       -0.69480
