27

C          1.42639       -1.04318       -0.23080
C          0.50781       -1.18321        0.73392
C         -0.99221       -1.09369        0.59188
C         -1.59115       -1.14964       -0.79891
O         -1.50971        0.19087       -1.27529
C         -1.57937        1.00195       -0.09625
C         -0.50169        2.09118       -0.12629
C         -0.38001        2.84138       -1.46403
C         -1.58726        3.73960       -1.72466
C          0.90833        3.66673       -1.48367
O         -1.40602        0.18802        1.07763
H          1.15758       -0.80751       -1.25694
H          2.48626       -1.10932       -0.00170
H          0.85609       -1.37127        1.74848
H         -1.43214       -1.87725        1.21873
H         -2.65322       -1.41739       -0.75298
H         -1.09009       -1.83753       -1.48541
H         -2.57676        1.45183       -0.04525
H         -0.68116        2.79370        0.69824
H          0.46755        1.63311        0.10133
H         -0.30774        2.11612       -2.28356
H         -1.69811        4.49332       -0.93786
H         -1.47792        4.26411       -2.68012
H         -2.51266        3.15773       -1.77293
H          1.78298        3.01817       -1.36060
H          1.01943        4.19239       -2.43778
H          0.92038        4.40912       -0.67915
