25

O          1.36518       -0.10162       -0.32828
C          2.55423       -0.02678       -0.06458
C          3.42244       -1.26796       -0.09116
N          3.14549       -2.12409       -1.02893
C          3.81144       -3.31858       -1.18860
O          4.67863       -3.73459       -0.42458
C          3.40808       -4.13590       -2.41842
Cl         1.70428       -4.61277       -2.30284
Cl         3.72203       -3.19631       -3.89396
C          4.48306       -1.28936        0.97295
Cl         3.69078       -1.68483        2.52177
C          5.20202        0.02797        1.14503
O          6.34038        0.09683        1.60448
C          4.49281        1.27959        0.78474
C          5.11704        2.51195        1.02130
C          4.45471        3.70364        0.72053
C          3.16555        3.67232        0.19101
C          2.53966        2.44900       -0.04835
C          3.20986        1.25323        0.23950
H          4.01464       -5.04481       -2.46337
H          5.25478       -2.03208        0.78604
H          6.11931        2.55292        1.44670
H          4.94384        4.65807        0.90570
H          2.64830        4.60194       -0.03833
H          1.53455        2.43273       -0.46855
