141

O         -0.08493       -0.06107       -0.37848
C          1.11617       -0.20891       -0.56989
O          1.92829        0.82265       -0.91106
C          3.38405        0.78052       -0.93780
C          3.98132        0.71161        0.48131
O          4.63292       -0.59209        0.60299
C          5.40335       -0.79752        1.79897
O          5.44730       -2.16598        2.22891
C          6.52645       -2.99090        1.85806
C          6.15884       -4.50094        2.08599
O          6.65808       -5.10514        3.30425
C          7.83214       -5.78580        3.18067
O          8.51411       -5.88598        2.17383
C          8.26182       -6.26672        4.50388
C          9.07592       -5.44753        5.28855
C          9.49339       -5.86674        6.54961
C          9.13173       -7.13074        7.00705
C          8.35759       -7.97204        6.20212
C          7.91591       -7.54173        4.94689
O          6.61515       -2.87625        0.42938
C          7.73853       -2.08065        0.04265
C          7.10815       -0.85946       -1.18884
O          8.03347        0.12942       -2.07345
C          8.32580        1.47025       -2.16864
O          7.61498        2.32182       -1.65188
C          9.74663        1.86757       -2.77623
C         10.80866        1.02010       -3.16038
C         12.14688        1.46918       -3.31556
C         12.44858        2.81507       -3.20199
C         11.39960        3.70362       -3.00396
C         10.07851        3.23578       -2.79129
C          8.68574       -2.04446        1.56696
O          9.88741       -1.21905        2.03367
C          9.98804       -0.04211        2.73183
O          9.01725        0.49722        3.23633
C         11.25156        0.81982        2.66575
C         11.10539        2.13410        3.16305
C         12.02594        3.14939        2.87818
C         13.10836        2.88668        2.05279
C         13.31987        1.58815        1.60966
C         12.44101        0.55422        1.97902
C          7.78712       -2.58030        2.67270
O          7.47759       -1.71397        3.81839
C          8.37238       -1.57785        4.84484
O          9.36750       -2.27044        4.99534
C          8.18070       -0.29675        5.61897
C          6.97161        0.40226        5.63688
C          6.95406        1.75443        6.01060
C          8.12480        2.41290        6.38397
C          9.31749        1.70309        6.45199
C          9.34290        0.34989        6.09238
C          6.57180        0.27961        1.93065
O          7.80776        0.05805        0.80743
C          9.10106        0.35309        0.19976
O          9.63559        1.41894        0.40455
C         10.01542       -0.91916       -0.72574
C          9.73989       -1.58555       -1.97635
C         10.48023       -2.61328       -2.60724
C         11.57763       -3.13187       -1.98897
C         11.90748       -2.59498       -0.76640
C         11.16423       -1.51863       -0.20077
C          5.78652        1.62692        2.06627
O          4.92846        1.75320        3.39182
C          3.72642        1.18016        3.77051
O          3.09195        0.33823        3.14640
C          3.09934        1.57303        5.07058
C          2.09285        0.72724        5.59871
C          1.33206        1.09963        6.71105
C          1.56340        2.32959        7.31308
C          2.56897        3.16431        6.81838
C          3.34050        2.78457        5.70804
C          4.97059        1.86229        0.78379
O          4.51700        3.23828        0.68963
C          3.66903        3.77361        1.58552
O          2.81376        3.17717        2.23627
C          4.04019        5.18433        1.84911
C          3.95905        5.67354        3.16159
C          4.35122        6.97900        3.46185
C          4.79372        7.81646        2.44144
C          4.85762        7.34390        1.12881
C          4.49439        6.02651        0.83136
C          1.69057       -1.56214       -0.50623
C          1.93355       -2.15186        0.73652
C          2.43031       -3.45423        0.79302
C          2.65146       -4.17062       -0.38489
C          2.36525       -3.59228       -1.62338
C          1.87787       -2.28617       -1.68764
H          3.71085       -0.04449       -1.57827
H          3.67914        1.71145       -1.43108
H          3.12486        0.75939        1.14137
H          4.75870       -0.52599        2.59894
H          5.07060       -4.62069        2.10720
H          6.49432       -5.09696        1.22477
H          9.40145       -4.48545        4.91781
H         10.10478       -5.20877        7.16323
H          9.46450       -7.46428        7.98705
H          8.10175       -8.96708        6.55697
H          7.32216       -8.20165        4.32183
H          8.29142       -2.78744       -0.58186
H          6.64287       -1.49066       -1.95724
H          6.30681       -0.23417       -0.81729
H         10.67974       -0.03154       -3.33946
H         12.95422        0.75824       -3.50169
H         13.47731        3.16652       -3.27720
H         11.61242        4.77018       -2.96812
H          9.30744        3.97538       -2.59711
H          9.26171       -2.95583        1.32910
H         10.21271        2.41059        3.72045
H         11.85121        4.15573        3.24789
H         13.77920        3.68741        1.75387
H         14.15704        1.37687        0.94688
H         12.73986       -0.42996        1.66219
H          8.30824       -3.43100        3.09922
H          6.06033       -0.06312        5.27583
H          6.03394        2.32311        5.95239
H          8.10877        3.48069        6.59324
H         10.24011        2.21836        6.70965
H         10.30387       -0.15855        6.05270
H          7.04242        0.12071        2.87558
H          8.91404       -1.40199       -2.64930
H         10.15060       -2.98375       -3.57709
H         12.13395       -3.94628       -2.43758
H         12.72910       -3.03008       -0.20246
H         11.49114       -1.29366        0.78119
H          6.50826        2.44042        2.18789
H          1.85941       -0.22195        5.11543
H          0.54312        0.44639        7.07964
H          0.95014        2.64386        8.15524
H          2.73068        4.13207        7.28660
H          4.09467        3.45933        5.32632
H          5.71351        1.80984       -0.01788
H          3.59141        5.03804        3.95833
H          4.30466        7.34309        4.48582
H          5.08329        8.84019        2.66715
H          5.19292        8.00489        0.33363
H          4.55851        5.66779       -0.19206
H          1.75811       -1.59594        1.65501
H          2.64933       -3.90480        1.75749
H          3.03976       -5.18489       -0.33617
H          2.51414       -4.16368       -2.53583
H          1.62941       -1.84299       -2.64793
