20

C          0.89827        0.24498        0.38875
C          0.41502        1.12388       -0.75481
C          0.87551        0.62793       -2.12191
O          0.24040       -0.62108       -2.44211
C          1.00564       -1.74242       -2.34291
O          2.18619       -1.76945       -2.01972
C          0.22394       -2.98106       -2.76157
O         -1.18256       -2.83830       -2.83560
N         -1.79346       -2.76125       -1.56338
O         -1.06367       -2.87853       -0.57932
O         -3.01081       -2.60415       -1.62898
H          0.46934       -0.75874        0.32959
H          0.59873        0.67704        1.34872
H          1.98904        0.15519        0.38180
H         -0.68021        1.15974       -0.72704
H          0.78547        2.14344       -0.60044
H          0.55758        1.34378       -2.88792
H          1.96846        0.57007       -2.17837
H          0.56354       -3.22682       -3.77398
H          0.50299       -3.82665       -2.12096
