22

Cl        -1.64430       -1.92295        0.02968
C         -0.53276       -0.60081        0.00815
C          0.82856       -0.89515        0.09912
C          1.77500        0.13561        0.08841
Cl         3.43802       -0.32049        0.23715
C          1.37684        1.48228       -0.01788
C          2.32598        2.60679       -0.04019
C          2.38532        3.51533        1.02932
C          3.27216        4.59439        1.00438
C          4.11183        4.78173       -0.09092
C          4.06461        3.89268       -1.16206
C          3.17590        2.81516       -1.13832
C         -0.00207        1.75651       -0.10612
C         -0.95082        0.72818       -0.09309
Cl        -2.61680        1.17031       -0.20484
H          1.15518       -1.92936        0.18318
H          1.74181        3.38425        1.89702
H          3.30853        5.28680        1.84157
H          4.80409        5.61953       -0.10930
H          4.72033        4.03615       -2.01707
H          3.15312        2.13415       -1.98688
H         -0.33676        2.79005       -0.19295
