63

C          1.20002        0.28585       -0.48489
C          1.05301       -1.20916       -0.72295
C          1.48343       -2.05090        0.48110
C          0.69135       -1.78192        1.76517
C         -0.81642       -2.02261        1.63748
C         -1.18959       -3.47400        1.31785
C         -0.76968       -4.47389        2.40088
C         -1.41126       -4.20855        3.76742
C         -2.94051       -4.30842        3.75612
C         -3.45799       -5.70259        3.38619
C         -3.02671       -6.79435        4.37154
C         -3.55534       -6.57613        5.79337
C         -5.08504       -6.59004        5.88403
C         -5.71007       -7.92591        5.46711
C         -5.29107       -9.10412        6.35347
C         -5.70057       -8.94913        7.82219
C         -7.21448       -8.84949        8.03724
C         -7.99183      -10.09580        7.60115
C         -7.60429      -11.37841        8.34717
C         -7.79615      -11.30623        9.85890
O         -9.16028      -11.09120       10.18775
H          0.53176        0.63573        0.30774
H          0.94937        0.83978       -1.39438
H          2.22810        0.53567       -0.20455
H          0.01779       -1.43604       -1.00077
H          1.66954       -1.49160       -1.58410
H          1.40888       -3.11186        0.21473
H          2.54570       -1.86788        0.68339
H          1.10311       -2.40405        2.56820
H          0.85676       -0.74898        2.09099
H         -1.30269       -1.70755        2.56761
H         -1.23639       -1.37059        0.86402
H         -2.27204       -3.53183        1.15633
H         -0.74238       -3.77565        0.36446
H         -1.01485       -5.48627        2.06085
H          0.31976       -4.46929        2.51416
H         -0.99254       -4.91012        4.49720
H         -1.12312       -3.21757        4.13417
H         -3.32230       -4.01279        4.73948
H         -3.36252       -3.57654        3.05895
H         -4.55052       -5.66789        3.31456
H         -3.11894       -5.97727        2.38153
H         -3.35648       -7.76674        3.99028
H         -1.93404       -6.86268        4.40601
H         -3.13056       -7.34182        6.45141
H         -3.18517       -5.62543        6.19242
H         -5.38229       -6.33627        6.90723
H         -5.50697       -5.79241        5.26280
H         -6.80046       -7.82278        5.46803
H         -5.44997       -8.15541        4.42788
H         -5.71508      -10.02600        5.94091
H         -4.20522       -9.24302        6.30298
H         -5.29489       -9.79102        8.39367
H         -5.22506       -8.05928        8.25008
H         -7.40833       -8.64099        9.09501
H         -7.61227       -7.98143        7.49933
H         -9.06312       -9.90458        7.73187
H         -7.85622      -10.26144        6.52585
H         -8.22432      -12.19191        7.95168
H         -6.56395      -11.64215        8.12668
H         -7.49147      -12.25369       10.31420
H         -7.19148      -10.51736       10.31644
H         -9.40350      -10.20015        9.87828
