8

O          0.92745        0.14726       -0.07363
C          2.14865        0.08026       -0.03819
O          2.89318        1.03265        0.57278
C          2.95642       -1.02099       -0.66993
Br         2.59194       -2.66437        0.28618
H          3.85638        0.87757        0.57329
H          2.67409       -1.14369       -1.71754
H          4.03075       -0.83833       -0.60116
