24

O          1.15157       -0.08508       -0.23460
N          2.35385       -0.04078        0.05468
O          3.03400       -0.99013        0.46471
C          3.04117        1.22345       -0.13871
C          4.09906        1.22471       -1.04479
C          4.78624        2.41334       -1.27659
C          5.85242        2.43888       -2.18726
C          6.53737        3.62145       -2.42133
C          6.13006        4.74206       -1.73324
N          5.10866        4.74672       -0.85093
C          4.42147        3.60425       -0.60217
C          3.35254        3.58297        0.32007
N          3.00903        4.72055        0.97332
C          1.99855        4.71860        1.86497
C          1.26557        3.59908        2.17207
C          1.59341        2.42022        1.51861
C          2.64510        2.38040        0.56684
H          4.38008        0.30940       -1.56334
H          6.15725        1.54045       -2.71960
H          7.36473        3.66699       -3.12004
H          6.62392        5.69987       -1.87058
H          1.79625        5.67596        2.33658
H          0.46068        3.63911        2.89706
H          1.01182        1.53278        1.76241
