29

C          1.08279        0.25526        0.13529
N          0.68535        0.99308       -1.05088
C         -0.33889        0.62049       -1.92104
C         -0.10399        0.90675       -3.36357
N         -0.84499        0.57822       -4.36628
N         -2.04274       -0.02557       -4.08427
C         -2.81641       -0.33797       -5.23824
C         -4.20350       -0.15105       -5.25962
C         -4.95105       -0.49282       -6.38765
C         -4.32548       -1.07503       -7.48824
C         -2.93976       -1.29263       -7.48457
C         -2.29198       -2.02882       -8.62947
F         -2.70945       -3.32437       -8.70709
F         -2.57393       -1.47516       -9.84106
F         -0.93309       -2.08382       -8.55018
C         -2.18887       -0.87792       -6.37163
C         -2.48799       -0.30318       -2.78923
O         -3.56592       -0.83759       -2.52021
C         -1.52019        0.02205       -1.69194
Cl        -2.04152       -0.42249       -0.09538
H          1.07401       -0.82396       -0.04933
H          0.43743        0.49335        0.98463
H          2.10464        0.53558        0.41070
H          1.47792        1.43813       -1.51015
H          0.83429        1.44168       -3.58841
H         -4.71672        0.29026       -4.40825
H         -6.02493       -0.32228       -6.39541
H         -4.92541       -1.37756       -8.34542
H         -1.11296       -1.04797       -6.35625
