44

C          2.33160        1.11391        1.11980
C          1.27311        1.96747        0.38253
C         -0.10065        1.79985        1.01494
C         -0.53342        0.32591        0.92943
C         -0.32806       -0.35504       -0.45338
C         -0.02495       -1.87752       -0.35003
C         -1.05389       -2.67267        0.46440
C         -0.57955       -4.11559        0.60920
C         -0.33202       -4.74559       -0.74133
O         -0.35062       -5.96298       -0.90751
C          0.03569       -3.86476       -1.87794
C          0.19624       -2.53853       -1.71532
C          0.72616       -1.71953       -2.88166
C          0.51400       -0.20567       -2.77400
C          0.82240        0.21440       -1.33661
C          1.09919        1.69002       -1.12359
C          2.38251        2.22888       -1.76599
C          2.77142        3.45693       -0.93194
C          1.86336        3.35290        0.27718
O          1.70921        4.24696        1.10169
H          2.12817        0.04065        1.07843
H          2.36624        1.39133        2.17994
H          3.34084        1.25739        0.72045
H         -0.84082        2.43413        0.50904
H         -0.09389        2.12690        2.06156
H          0.00102       -0.23435        1.70542
H         -1.59419        0.25869        1.20590
H         -1.28237       -0.22168       -0.98496
H          0.93433       -1.96214        0.18442
H         -1.18600       -2.24672        1.46420
H         -2.03194       -2.64693       -0.03264
H          0.35613       -4.15749        1.18037
H         -1.33540       -4.70229        1.13981
H          0.24031       -4.37017       -2.81543
H          1.80946       -1.89338       -2.93864
H          0.29886       -2.07164       -3.82832
H          1.15957        0.30676       -3.49478
H         -0.51940        0.04990       -3.04505
H          1.76016       -0.29124       -1.06703
H          0.25875        2.27892       -1.52324
H          3.18597        1.48264       -1.74651
H          2.22541        2.50155       -2.81501
H          2.60195        4.39190       -1.46712
H          3.81579        3.38137       -0.61033
