21

N          1.10608       -0.02241        0.19599
C          0.61755       -0.39112       -1.14245
C          1.04988       -1.80811       -1.60045
O          0.66028       -2.75179       -0.59299
C          0.50711       -2.27908       -2.93808
C         -0.10896       -1.42210       -3.86346
C         -0.55683       -1.90095       -5.09909
C         -0.39071       -3.24170       -5.43483
C          0.22460       -4.10691       -4.53607
C          0.67182       -3.62848       -3.30262
H          0.60083       -0.55320        0.90357
H          2.09696       -0.23713        0.28689
H         -0.47630       -0.32034       -1.12145
H          0.98356        0.35908       -1.85163
H          2.14547       -1.83614       -1.66587
H          1.11085       -2.47996        0.22204
H         -0.25660       -0.36744       -3.64812
H         -1.03664       -1.22298       -5.80055
H         -0.74111       -3.61143       -6.39451
H          0.35588       -5.15514       -4.79045
H          1.14738       -4.32129       -2.61013
