32

C          1.77295       -0.03456       -0.51657
C          1.01276       -1.27054       -0.97084
C          1.10741       -2.44960       -0.00191
C          0.46659       -2.28364        1.38887
C         -1.08592       -2.39587        1.53820
C         -1.57286       -3.70194        0.85281
C         -1.45806       -2.55363        3.05052
C         -0.96744       -1.48638        4.01960
C         -1.88772       -1.23661        0.88290
C         -1.53946        0.19123        1.27960
H          1.43053        0.32912        0.45373
H          1.63568        0.77483       -1.24085
H          2.84530       -0.24249       -0.44345
H         -0.02580       -1.00815       -1.17655
H          1.43393       -1.58749       -1.93298
H          0.71486       -3.34565       -0.49324
H          2.17537       -2.65685        0.15559
H          0.89965       -3.08514        2.00592
H          0.83381       -1.35882        1.84197
H         -1.01755       -4.57343        1.21729
H         -2.63631       -3.87909        1.05346
H         -1.45821       -3.65959       -0.23538
H         -2.54920       -2.62768        3.14988
H         -1.06209       -3.51445        3.40759
H         -1.44924       -0.52319        3.84879
H         -1.21490       -1.78424        5.04462
H          0.11632       -1.35394        3.97455
H         -1.80583       -1.31611       -0.20585
H         -2.95825       -1.38349        1.08295
H         -0.50901        0.31202        1.61314
H         -1.69323        0.86265        0.42779
H         -2.19973        0.54243        2.07817
