46

C          0.23305        0.62514       -0.06204
N         -0.42576       -0.16678        0.96395
C         -1.86938       -0.19974        0.79300
C          0.15767       -1.49152        1.18613
C          0.35237       -2.46856        0.00947
C          1.55559       -2.24056       -0.92134
O          2.78164       -2.75161       -0.38690
C          3.40352       -1.86924        0.41609
N          3.99405       -0.79638       -0.11261
N          4.46413       -0.14056        0.98421
C          5.31305        1.03645        0.80381
C          4.62521        2.37732        0.97013
C          3.92389        2.72785        2.13385
C          3.43386        4.02286        2.32388
C          3.62751        4.99273        1.34726
C          4.30185        4.66358        0.17517
C          4.79940        3.36923       -0.01075
C          4.19354       -0.79390        2.17507
C          4.45220       -0.48772        3.51901
C          3.89667       -1.32531        4.49417
C          3.19720       -2.47835        4.14563
C          3.03511       -2.83016        2.80493
C          3.51113       -1.95105        1.81386
H         -0.09395        1.66881       -0.00556
H          0.01178        0.26086       -1.07066
H          1.31799        0.63861        0.08620
H         -2.17307       -0.74865       -0.10313
H         -2.34554       -0.66256        1.66504
H         -2.27014        0.81808        0.73063
H          1.09839       -1.32051        1.69869
H         -0.45457       -2.00867        1.93838
H          0.45777       -3.47363        0.44134
H         -0.56425       -2.48522       -0.59068
H          1.37390       -2.84107       -1.82190
H          1.65783       -1.21354       -1.27843
H          6.14212        0.95845        1.51659
H          5.74996        0.95164       -0.19954
H          3.75064        2.01194        2.92825
H          2.90909        4.27221        3.24311
H          3.25474        6.00182        1.50141
H          4.45314        5.41997       -0.59083
H          5.34186        3.14872       -0.92839
H          5.00657        0.39695        3.81239
H          4.00295       -1.06366        5.54465
H          2.75877       -3.10347        4.91952
H          2.47908       -3.72006        2.52616
