27

O          1.19992        1.24136       -1.51315
C          2.20327        0.73735       -1.04714
O          2.70899       -0.45133       -1.43907
C          3.00705        1.36023        0.02129
C          4.36975        1.59171       -0.22883
C          5.15197        2.25499        0.71757
C          4.57703        2.70483        1.90508
C          3.22018        2.48767        2.15223
C          2.42872        1.80327        1.21770
C          1.00223        1.60602        1.56629
O          0.37106        2.54840        2.03639
C          0.35330        0.27989        1.43609
C         -0.98623        0.23136        1.03824
C         -1.62596       -0.99982        0.89836
C         -0.93371       -2.17990        1.17061
C          0.39619       -2.13262        1.59161
C          1.04291       -0.90300        1.73036
H          3.46384       -0.77804       -0.91449
H          4.81752        1.29771       -1.17661
H          6.20387        2.44918        0.51756
H          5.17996        3.24322        2.63360
H          2.77482        2.86042        3.07405
H         -1.52445        1.15151        0.81952
H         -2.66242       -1.03639        0.57258
H         -1.43547       -3.13801        1.05810
H          0.92331       -3.05646        1.81627
H          2.06848       -0.88355        2.08602
