25

N          0.85456        0.14657        0.60784
C          0.31986       -1.01320        1.03707
O         -0.89249       -1.16356        1.12026
N          1.17768       -1.99964        1.37934
C          2.61045       -1.91701        1.58890
C          2.97192       -1.50835        3.01679
C          2.53013       -2.49455        4.11032
C          3.00939       -3.94548        3.94021
N          4.48152       -4.01487        3.83813
C          2.55829       -4.88318        5.07569
O          2.83516       -6.07531        5.14055
O          1.82405       -4.30297        6.04546
H          0.15463        0.80070        0.27978
H          1.66213        0.08124        0.00786
H          0.69042       -2.81532        1.72925
H          3.03150       -2.89383        1.33444
H          3.04255       -1.19383        0.89099
H          4.05753       -1.36648        3.07684
H          2.52374       -0.53147        3.23890
H          2.87986       -2.10288        5.07523
H          1.43361       -2.48754        4.16699
H          2.56641       -4.36420        3.02885
H          4.75487       -5.00200        3.84328
H          4.78961       -3.64218        2.94324
H          1.68795       -5.02046        6.69911
