29

N          2.29518       -0.34837       -0.52703
C          0.91232       -0.16436       -0.38646
C          0.10996       -1.31682       -0.32525
C         -1.27049       -1.22504       -0.11498
S         -2.23787       -2.70189       -0.08031
N         -1.82399       -3.44866       -1.52733
O         -1.73626       -3.54995        0.97242
O         -3.63583       -2.36074       -0.21466
C         -1.87942        0.01095        0.06946
C         -1.08866        1.15761        0.05676
C          0.30482        1.07723       -0.15525
S          1.13477        2.65420       -0.16025
O          0.86228        3.23257       -1.46546
O          0.67117        3.34614        1.03428
C          2.88707        2.51135       -0.00799
C          3.35062        2.18754        1.39883
O          3.05590        0.84193        1.76324
H          2.55553       -1.27183       -0.86539
H          2.77396       -0.18711        0.37288
H          0.55985       -2.30028       -0.44672
H         -1.41847       -4.36568       -1.33653
H         -2.63962       -3.48363       -2.14055
H         -2.95255        0.09348        0.22809
H         -1.56325        2.12812        0.20464
H          3.26792        1.82917       -0.76791
H          3.27199        3.50573       -0.26753
H          4.43938        2.29531        1.44913
H          2.92380        2.86567        2.14478
H          2.53183        0.88126        2.58749
