22

C          1.09067       -0.10229       -0.06438
C          0.50221       -0.33346       -1.45663
C          0.93959       -1.70514       -1.97960
C         -1.03765       -0.23961       -1.46859
C         -1.62592        1.10863       -1.01334
C         -1.17720        2.27896       -1.88680
N         -3.08952        1.01244       -1.04578
H          0.66552       -0.79818        0.66676
H          0.90208        0.91743        0.28423
H          2.17678       -0.24474       -0.07348
H          0.91607        0.42040       -2.13636
H          0.56794       -2.51256       -1.33947
H          0.56117       -1.87374       -2.99339
H          2.03183       -1.77744       -2.01629
H         -1.38988       -0.45858       -2.48646
H         -1.44260       -1.03615       -0.82851
H         -1.33671        1.30638        0.02394
H         -1.40980        2.10405       -2.94315
H         -1.67200        3.20833       -1.58234
H         -0.09956        2.44785       -1.79929
H         -3.49727        1.90136       -0.75775
H         -3.40362        0.85619       -2.00305
