14

S          0.93841        0.11744       -0.37799
C          0.49702       -1.20351       -1.42027
N          0.88523       -2.40876       -1.10474
C          0.52733       -3.42142       -1.99638
C         -0.15261       -3.23324       -3.13449
N         -0.57868       -4.02911       -4.14972
C         -1.16025       -3.17917       -4.95128
N         -1.17912       -1.84156       -4.56167
C         -0.55324       -1.85489       -3.42717
N         -0.22482       -0.88729       -2.53745
H          1.81464       -0.59716        0.34190
H          0.85055       -4.42286       -1.72777
H         -1.62202       -3.48570       -5.90353
H         -0.47602        0.07129       -2.71984
