27

C          0.89411        0.08578        0.01402
C          0.51066       -0.14809       -1.43327
C          0.88851       -1.53504       -1.90752
O          0.01503       -2.35922       -2.18768
C          2.35008       -1.89975       -1.98450
C          2.77602       -2.66022       -0.75798
O          3.35940       -2.10718        0.17325
C          2.35866       -4.10649       -0.67179
C          2.79390       -4.84672       -1.93247
C          2.28586       -6.26451       -1.88095
O          2.97640       -7.26791       -1.88100
O          0.94498       -6.34877       -1.82783
C          2.32516       -4.17387       -3.22123
C          2.66301       -2.69783       -3.22612
O          3.09268       -2.14859       -4.24155
H          0.56001       -0.73872        0.65277
H          0.44421        1.01222        0.38326
H          1.97891        0.17809        0.12201
H         -0.57560       -0.04417       -1.54052
H          0.97322        0.59311       -2.09199
H          2.94892       -0.98240       -2.04029
H          1.27510       -4.14187       -0.51561
H          2.82688       -4.55878        0.21035
H          3.89160       -4.88780       -1.94525
H          0.75017       -7.31008       -1.80162
H          1.24657       -4.27959       -3.37587
H          2.81784       -4.64684       -4.07950
