24

C          0.55084       -0.12091       -0.28763
C          0.43194       -0.16589        1.22293
O          1.09891        0.91961        1.86406
C          2.48513        0.73479        2.11988
O          2.79869       -0.49584        2.76185
C          2.26335       -0.64982        4.07251
C          2.87403        0.30233        5.08676
C          3.39821        0.97467        0.88883
C          3.65795        2.41700        0.52909
O          3.89328        0.06663        0.21537
H          0.42784        0.89852       -0.66481
H         -0.20608       -0.76496       -0.74675
H          1.52754       -0.48271       -0.61648
H         -0.62773       -0.05709        1.48067
H          0.74726       -1.13765        1.61629
H          2.76900        1.54060        2.80430
H          1.17236       -0.55960        4.05587
H          2.49524       -1.67595        4.37726
H          2.50092        1.32153        4.94553
H          2.61367       -0.00391        6.10409
H          3.96351        0.33520        4.98910
H          4.56782        2.48164       -0.07510
H          2.81263        2.81965       -0.03166
H          3.82188        3.00609        1.43582
