24

N         -2.74428        0.11664        0.05473
C         -1.45683        0.02942        0.07517
C         -0.63921        1.25247       -0.00892
C          0.69437        1.19689       -0.04488
C          1.43606       -0.08841       -0.01081
N          2.72681       -0.02688       -0.12956
C          3.50710       -1.18930       -0.13569
C          4.30899       -1.48793        0.96788
C          5.12491       -2.62144        0.96548
C          5.14676       -3.46125       -0.14736
C          4.36372       -3.16134       -1.26118
C          3.55659       -2.02186       -1.25870
C          0.59991       -1.30984        0.15726
C         -0.73585       -1.25479        0.18801
H         -3.18269       -0.80667        0.11824
H         -1.17237        2.19507       -0.04857
H          1.29391        2.09744       -0.11672
H          4.30531       -0.82404        1.82800
H          5.75044       -2.84086        1.82668
H          5.78548       -4.34092       -0.15216
H          4.39081       -3.80550       -2.13597
H          2.96586       -1.77650       -2.13681
H          1.10689       -2.26245        0.24845
H         -1.32642       -2.15575        0.29814
