38

C          1.23940       -0.37535       -0.26874
C          0.44336       -0.51169        0.99314
O         -0.76906       -0.36237        1.04815
O          1.25654       -0.83026        2.03498
C          0.64504       -0.94357        3.33073
C          0.97545        0.28916        4.17327
C          0.40085        1.60100        3.62760
C         -1.13095        1.68662        3.65146
C         -1.73465        1.87071        5.04941
C         -1.36654        3.18434        5.69786
C         -0.70583        3.20668        6.93457
C         -0.35266        4.42152        7.52465
C         -0.67014        5.61921        6.87870
S         -0.22047        7.15377        7.62660
N         -1.26501        7.21825        8.94010
O          1.11103        7.03728        8.17323
O         -0.61541        8.24553        6.76722
C         -1.32673        5.61470        5.64834
C         -1.68239        4.39858        5.06800
H          0.89963        0.51074       -0.81206
H          1.10802       -1.27084       -0.87951
H          2.30132       -0.23988       -0.04386
H         -0.43243       -1.12871        3.27288
H          1.08508       -1.82678        3.80672
H          0.64135        0.12938        5.20376
H          2.06701        0.39916        4.20567
H          0.82963        2.43437        4.19644
H          0.74418        1.74597        2.59684
H         -1.43596        2.51574        3.00192
H         -1.57035        0.78909        3.20701
H         -2.82891        1.82904        4.97488
H         -1.44640        1.03112        5.69265
H         -0.45674        2.27764        7.44318
H          0.16530        4.42891        8.48064
H         -0.72836        7.25507        9.80649
H         -1.91969        7.99158        8.82244
H         -1.56608        6.54365        5.13629
H         -2.20340        4.40414        4.11265
