38

C          1.02133       -0.36624        0.04670
C          0.77527        0.23772        1.42116
C          1.20261        1.70466        1.52712
C          0.47868        2.67014        0.58145
C         -1.04382        2.72961        0.74779
C         -1.52995        3.22847        2.11386
C         -1.12736        4.66677        2.46378
C         -1.63790        5.74205        1.49675
C         -3.16327        5.84656        1.38498
C         -3.88580        6.24231        2.67790
C         -3.49436        7.60819        3.25729
C         -3.71358        8.80235        2.33216
Cl        -5.42993        9.02423        1.92197
H          0.39948        0.10800       -0.71831
H          0.77749       -1.43350        0.05539
H          2.07078       -0.26143       -0.24565
H         -0.28072        0.12502        1.68778
H          1.34266       -0.34104        2.16032
H          1.06781        2.03564        2.56353
H          2.27955        1.77174        1.32851
H          0.90249        3.67234        0.71576
H          0.70463        2.39637       -0.45587
H         -1.45590        3.36741       -0.04231
H         -1.46972        1.73559        0.56756
H         -2.62180        3.13863        2.14835
H         -1.15815        2.56111        2.89991
H         -1.48137        4.89050        3.47712
H         -0.03472        4.73570        2.51525
H         -1.22664        6.71079        1.80314
H         -1.22772        5.55715        0.49708
H         -3.40664        6.56881        0.59741
H         -3.57173        4.89068        1.03680
H         -4.96589        6.22314        2.48956
H         -3.71013        5.47767        3.44353
H         -4.06157        7.76542        4.18376
H         -2.43947        7.58711        3.55465
H         -3.37998        9.72078        2.82468
H         -3.15252        8.70384        1.39894
