37

N          2.80077       -0.19995        0.41254
C          1.84774       -0.66354        1.14666
N          2.20443       -1.08763        2.38082
C          1.20587       -1.48189        3.09417
O          1.44823       -1.89316        4.35860
C         -0.26658       -1.54491        2.75451
O         -1.04613       -2.01837        3.75781
C         -2.39047       -1.87374        4.20747
O         -2.87806       -0.58087        4.51842
C         -3.56181        0.11395        3.47637
C         -2.60198        1.15931        2.88055
O         -2.77939        1.39452        1.49534
C         -4.51900       -0.75531        2.60518
O         -4.86092       -0.19915        1.33877
C         -4.23566       -2.27210        2.49604
O         -3.55207       -2.66239        1.29492
C         -3.46089       -2.83816        3.67537
O         -2.93937       -4.13121        3.32739
C         -0.49883       -1.10797        1.48576
N         -1.71080       -1.00875        0.85556
N          0.56921       -0.70850        0.72134
H          3.63584       -0.27938        1.00428
H          0.62299       -2.11013        4.82085
H         -2.25045       -2.27382        5.22142
H         -4.26639        0.75327        4.03098
H         -2.75630        2.11524        3.39678
H         -1.55468        0.91330        3.08313
H         -2.13378        0.79811        1.05368
H         -5.46548       -0.72658        3.16425
H         -4.12098        0.37866        1.05502
H         -5.20038       -2.79079        2.42045
H         -3.41516       -3.63148        1.39737
H         -4.19445       -2.98756        4.47908
H         -2.33685       -4.41713        4.03848
H         -2.38300       -1.71967        1.16649
H         -1.62714       -1.15559       -0.15037
H          0.39661       -0.31768       -0.19197
