17

O          1.16451        0.07497        0.04169
C          0.54489        1.25895        0.53777
C          1.05497        1.48779        1.91324
N          1.25523        2.64821        2.50862
C          1.71467        2.33959        3.76146
N          2.04477        3.22866        4.71517
C          2.47343        2.64038        5.84086
N          2.60461        1.31871        6.09434
C          2.26600        0.44879        5.12050
C          1.80769        0.97025        3.93281
N          1.37504        0.44340        2.75199
H          2.03772        0.35007       -0.29174
H          0.78163        2.09559       -0.12642
H         -0.53823        1.10907        0.54975
H          2.75088        3.30793        6.65119
H          2.37329       -0.60771        5.32735
H          1.31164       -0.53363        2.49685
