22

O          1.10942        0.09554       -0.13392
S          2.55313        0.03605       -0.12408
O          3.34266        0.79986        0.81613
O          2.95127       -1.50481        0.14420
C          3.11985        0.41372       -1.76155
C          3.60955       -0.63920       -2.54160
C          4.06952       -0.37340       -3.82303
I          4.79200       -1.96482       -4.97070
C          4.04264        0.93462       -4.31787
O          4.50217        1.20089       -5.59150
C          3.55467        2.00777       -3.55547
N          3.54938        3.25341       -4.08029
C          3.07459        4.28067       -3.35029
C          2.58106        4.13676       -2.07609
C          2.58125        2.86195       -1.52407
C          3.07649        1.74929       -2.24864
H          2.95165       -1.64789        1.11451
H          3.62634       -1.65520       -2.15440
H          4.79433        0.36677       -5.99534
H          3.10435        5.24964       -3.83979
H          2.20529        4.98998       -1.52302
H          2.18490        2.75899       -0.51627
