8

C          0.93540        0.04714        0.07570
C          0.42590        1.18818        0.92982
Br         1.11594        2.87589        0.25046
Br        -1.51916        1.15840        0.97304
H          0.59570        0.13120       -0.96329
H          0.58769       -0.91849        0.45935
H          2.03072        0.02205        0.06364
H          0.76762        1.09912        1.96426
