19

C          0.85633        0.13966        0.05341
C          0.51745       -1.00235        0.96977
C          0.91408       -2.30527        0.60749
C          0.63211       -3.40090        1.41807
C         -0.05295       -3.23852        2.62227
C         -0.45508       -1.94352        2.98535
S         -1.31565       -1.43578        4.38755
C         -1.29190        0.17890        3.81988
N         -1.88214        1.16889        4.50918
N         -0.66056        0.37572        2.69302
C         -0.18636       -0.82860        2.18823
H          0.44941        1.08668        0.42043
H          0.44090       -0.04095       -0.94327
H          1.94301        0.24572       -0.02633
H          1.45004       -2.46351       -0.32720
H          0.94767       -4.39530        1.10943
H         -0.27426       -4.09153        3.25618
H         -1.61268        2.11160        4.25346
H         -2.07379        1.02939        5.49250
