102

C          1.04720        0.51883       -0.24061
C          0.81546       -0.68987       -1.13328
C          1.39815       -1.98139       -0.55291
C          0.85439       -2.37405        0.82569
C         -0.66595       -2.51756        0.89200
C         -1.23468       -3.52977       -0.09798
C         -0.83182       -4.97991        0.19037
C         -1.54039       -5.58495        1.40581
C         -3.05625       -5.66478        1.25803
O         -3.39126       -6.56386        0.19682
C         -3.61986       -6.04402       -1.02875
O         -3.57758       -4.89358       -1.41993
C         -4.05646       -7.16799       -1.84000
C         -3.24407       -7.76077       -2.80094
C         -3.70737       -8.91190       -3.43953
C         -4.97987       -9.43980       -3.13003
C         -5.35915      -10.68729       -3.80903
O         -4.56332      -11.59162       -3.99803
O         -6.61740      -10.58193       -4.28278
C         -7.09746      -11.69244       -5.05361
C         -7.18094      -11.26787       -6.51737
C         -5.80608      -11.10877       -7.17806
C         -4.97148      -12.39395       -7.20273
C         -5.56574      -13.50896       -8.06529
C         -5.49465      -13.23422       -9.56898
C         -4.07541      -13.03106      -10.11312
C         -3.09371      -14.16385       -9.79940
C         -3.52630      -15.50227      -10.37679
C         -5.79734       -8.79194       -2.19905
C         -7.14791       -9.23768       -1.81246
O         -7.48452      -10.38311       -1.59158
O         -7.89670       -8.10947       -1.74719
C         -9.29842       -8.21078       -1.47734
C        -10.05156       -7.74228       -2.72060
C         -9.72307       -8.55717       -3.97429
C        -10.06757      -10.04045       -3.85559
C        -11.55962      -10.35562       -3.84209
C        -12.23542      -10.15661       -5.20144
C        -11.65130      -10.99491       -6.34800
C        -11.61498      -12.50574       -6.10135
C        -12.99388      -13.10044       -5.86380
C         -5.32043       -7.65930       -1.54505
H          0.49617        0.43355        0.70092
H          0.70532        1.42962       -0.74102
H          2.11052        0.63330       -0.00869
H         -0.25782       -0.80219       -1.32476
H          1.28228       -0.50525       -2.10786
H          1.22508       -2.79667       -1.26593
H          2.48729       -1.88081       -0.47799
H          1.32760       -3.31321        1.13380
H          1.16610       -1.63278        1.56970
H         -0.95781       -2.78963        1.91260
H         -1.13692       -1.54600        0.70212
H         -2.32035       -3.41248       -0.08284
H         -0.93677       -3.27790       -1.12126
H         -1.03825       -5.59186       -0.69500
H          0.25022       -5.05647        0.33644
H         -1.15064       -6.60166        1.54381
H         -1.29155       -5.02226        2.31096
H         -3.48113       -6.09520        2.17174
H         -3.53512       -4.68975        1.12637
H         -2.25910       -7.35882       -3.02510
H         -3.07406       -9.40911       -4.17454
H         -6.50736      -12.60110       -4.90514
H         -8.09304      -11.94166       -4.68154
H         -7.79050      -11.98513       -7.07557
H         -7.69615      -10.30062       -6.58082
H         -5.94394      -10.73336       -8.19831
H         -5.23893      -10.33178       -6.65164
H         -3.95766      -12.14871       -7.53513
H         -4.84307      -12.78541       -6.19068
H         -5.04161      -14.44401       -7.83737
H         -6.60887      -13.69281       -7.78590
H         -5.97152      -14.06734      -10.09824
H         -6.09407      -12.34913       -9.81205
H         -4.13599      -12.89926      -11.20002
H         -3.66399      -12.09228       -9.72345
H         -2.11365      -13.90046      -10.21374
H         -2.94970      -14.26168       -8.71744
H         -3.67405      -15.42920      -11.45863
H         -2.76041      -16.26029      -10.18682
H         -4.45831      -15.85424       -9.92444
H         -9.59356       -9.21410       -1.15827
H         -9.51414       -7.52924       -0.64753
H        -11.12816       -7.74642       -2.52607
H         -9.76946       -6.70169       -2.92821
H        -10.23587       -8.11615       -4.83558
H         -8.65228       -8.46495       -4.19572
H         -9.60382      -10.55434       -4.69542
H         -9.61387      -10.47295       -2.96062
H        -11.69256      -11.39450       -3.51819
H        -12.06961       -9.74486       -3.08949
H        -13.30240      -10.38123       -5.09399
H        -12.18158       -9.09895       -5.48394
H        -12.23800      -10.79582       -7.25276
H        -10.63500      -10.65357       -6.57848
H        -11.16935      -12.99008       -6.97846
H        -10.96062      -12.74499       -5.25545
H        -13.67172      -12.85286       -6.68667
H        -12.92867      -14.19036       -5.79189
H        -13.43365      -12.73285       -4.93188
H         -5.91793       -7.16197       -0.78228
