131

C          1.37521       -0.30584       -0.09365
C          0.62798        0.40411       -1.22235
C          0.96713       -0.22253       -2.57256
C         -0.89263        0.37916       -0.98227
C         -1.33355        1.16951        0.25638
C         -0.93891        2.64969        0.21112
C         -1.56724        3.40433       -0.96474
C         -3.09632        3.45325       -0.88923
C         -3.60584        4.17268        0.36435
C         -3.16506        5.63874        0.42631
C         -3.69425        6.46165       -0.75201
C         -5.22553        6.50024       -0.80294
C         -5.84490        7.17472        0.42562
C         -5.41227        8.63431        0.57671
C         -5.86400        9.50216       -0.60061
C         -7.39042        9.63751       -0.72821
C         -8.12976       10.08681        0.53711
C         -7.86887       11.53438        0.86045
O         -8.72756       12.39482        0.96377
O         -6.53848       11.75061        0.99383
C         -6.11877       13.11581        1.07944
C         -5.98872       13.77436       -0.30910
O         -7.23775       13.65946       -1.01729
C         -5.63708       15.27701       -0.24511
O         -4.29894       15.71147        0.01221
C         -3.49404       14.95347        0.90516
C         -3.76684       15.21555        2.40301
O         -5.15036       15.45675        2.66157
C         -3.28812       14.06513        3.31140
O         -1.86640       13.94055        3.27951
C         -1.30145       13.20224        2.29782
O         -1.88906       12.36887        1.62187
C          0.14834       13.58184        2.11235
C          0.40726       15.09620        2.18955
C          0.14851       15.76432        3.54962
C          0.74942       14.99775        4.72877
C          2.27522       15.07386        4.73063
C          2.78275       16.50109        4.95877
C          2.30683       17.09228        6.29048
C          2.81068       16.29322        7.49585
C          4.34002       16.27284        7.58021
C          4.93876       17.67544        7.73040
C          4.47512       18.38053        9.00861
C          4.88993       17.63167       10.27884
C          6.40986       17.54590       10.45446
C          7.08986       18.91582       10.57313
C          6.57295       19.76056       11.75188
C          6.91429       19.10426       13.08936
C          7.13825       21.17695       11.68428
H          1.02193       -1.33550        0.02550
H          1.23690        0.21169        0.86105
H          2.45067       -0.33269       -0.29240
H          0.98140        1.43982       -1.26871
H          0.62028       -1.25819       -2.63320
H          0.50055        0.34470       -3.38567
H          2.04919       -0.20982       -2.74108
H         -1.41328        0.76610       -1.86678
H         -1.23303       -0.65817       -0.87287
H         -2.41972        1.07245        0.36800
H         -0.91435        0.71732        1.16118
H         -1.21714        3.12010        1.16022
H          0.14938        2.75556        0.16325
H         -1.15494        4.41884       -0.99798
H         -1.26971        2.95164       -1.91642
H         -3.48245        3.93732       -1.79290
H         -3.51412        2.44163       -0.91593
H         -4.69768        4.09801        0.39991
H         -3.26688        3.65847        1.26934
H         -3.49465        6.07211        1.37658
H         -2.07255        5.71172        0.45211
H         -3.28121        7.47414       -0.69606
H         -3.31528        6.06419       -1.69938
H         -5.53884        7.00853       -1.72024
H         -5.63439        5.48912       -0.89783
H         -6.93598        7.10712        0.35940
H         -5.57983        6.62694        1.33663
H         -5.79496        9.02970        1.52303
H         -4.32322        8.70308        0.67439
H         -5.38916       10.48393       -0.52087
H         -5.47075        9.10577       -1.54304
H         -7.60194       10.34202       -1.54162
H         -7.80530        8.67320       -1.04425
H         -9.20740        9.98607        0.36590
H         -7.89893        9.47239        1.41219
H         -6.78677       13.67218        1.74301
H         -5.15034       13.05240        1.55818
H         -5.24670       13.23279       -0.90673
H         -7.96493       13.70015       -0.36141
H         -5.88412       15.71292       -1.22198
H         -6.31499       15.78771        0.44595
H         -3.53375       13.90059        0.62585
H         -2.45883       15.25384        0.70435
H         -3.23496       16.13318        2.68400
H         -5.34733       16.32191        2.25449
H         -3.56460       14.29910        4.34655
H         -3.77114       13.10897        3.09379
H          0.76018       13.01659        2.82080
H          0.43988       13.24872        1.10910
H          1.45160       15.27681        1.90715
H         -0.20164       15.61129        1.43762
H          0.52376       16.79188        3.51147
H         -0.92163       15.90550        3.72295
H          0.33512       15.39007        5.66313
H          0.43846       13.94853        4.72452
H          2.66703       14.39959        5.49996
H          2.67735       14.69531        3.78482
H          3.87582       16.50298        4.90146
H          2.46557       17.15937        4.14421
H          2.62984       18.13626        6.35417
H          1.21397       17.14712        6.32701
H          2.37756       16.71119        8.41068
H          2.43913       15.26348        7.46046
H          4.64515       15.62965        8.41163
H          4.76799       15.79464        6.69293
H          6.03071       17.60382        7.70389
H          4.68156       18.29793        6.86649
H          4.86692       19.40291        9.01681
H          3.38618       18.50107        9.00542
H          4.42901       18.11490       11.14589
H          4.47483       16.61815       10.27925
H          6.63237       16.93580       11.33589
H          6.85651       17.00240        9.61378
H          8.17123       18.76058       10.67444
H          6.96097       19.47051        9.63563
H          5.48426       19.86317       11.68874
H          7.99224       18.93421       13.18029
H          6.59351       19.73128       13.92642
H          6.40945       18.13896       13.19806
H          6.81440       21.67450       10.76330
H          6.77597       21.77571       12.52667
H          8.23185       21.17444       11.70705
