28

C          1.32752        0.18182        0.60560
C          0.61226       -1.14469        0.88418
C          0.90998       -1.55566        2.33330
O         -0.79904       -0.95110        0.77700
C          1.04586       -2.28227       -0.07077
C          0.39101       -2.31865       -1.46150
C          0.79316       -1.19639       -2.38128
C          2.05138       -1.18871       -2.99497
C          2.44055       -0.11248       -3.79393
C          1.57596        0.96562       -3.98262
C          0.31451        0.95799       -3.39289
C         -0.08133       -0.12353       -2.60587
H          1.08529        0.92119        1.37856
H          1.00888        0.63903       -0.33081
H          2.41497        0.05772        0.58510
H          0.57756       -0.78163        3.03514
H          0.36247       -2.46575        2.60297
H          1.97937       -1.72976        2.49047
H         -1.03917       -0.18912        1.33166
H          2.13958       -2.29261       -0.16273
H          0.77618       -3.23820        0.40007
H          0.66816       -3.26409       -1.94842
H         -0.70097       -2.36102       -1.36703
H          2.73840       -2.01936       -2.84857
H          3.42051       -0.11080       -4.26222
H          1.88736        1.81220       -4.58832
H         -0.35875        1.79982       -3.53191
H         -1.05974       -0.11073       -2.13033
