28

C          0.83615       -0.09084        0.14239
C          0.47018        1.30515        0.54389
N         -0.50968        1.41981        1.47266
C         -0.84599        2.68547        1.84530
C         -1.91417        2.84895        2.84811
O         -2.48680        1.86665        3.31829
N         -2.22731        4.15560        3.21849
C         -3.28124        4.30868        4.20602
C         -1.60880        5.29359        2.71902
O         -1.91744        6.42712        3.09176
N         -0.61836        5.09606        1.77246
C          0.05238        6.26689        1.23494
C         -0.23894        3.81486        1.33065
N          0.73404        3.69281        0.39348
C          1.08000        2.43611       -0.00486
C          2.16200        2.36984       -1.03947
H          0.56656       -0.26826       -0.90316
H          0.30264       -0.82395        0.75675
H          1.90812       -0.26293        0.27967
H         -4.20188        3.86551        3.81197
H         -2.99901        3.76545        5.11396
H         -3.47301        5.35309        4.46315
H         -0.69543        6.91951        0.77192
H          0.51884        6.81408        2.06135
H          0.81993        6.03364        0.49376
H          1.90572        3.02167       -1.88127
H          3.10673        2.71275       -0.60623
H          2.31351        1.36454       -1.43956
