33

O          1.45266       -0.49258       -0.53165
C          2.62348       -0.26674       -0.24121
C          3.62375       -1.39167       -0.10827
C          4.62713       -1.22949       -1.24056
C          5.32625        0.12613       -1.17951
C          4.33468        1.27687       -1.08445
O          4.53181        2.31013       -1.72154
C          3.20051        1.11699       -0.08894
C          2.21063        2.26429       -0.04783
O          2.24832        3.11839        0.83783
C          1.26193        2.49869       -1.16134
C          1.71347        3.34822       -2.18299
C          0.89862        3.65534       -3.27549
C         -0.39602        3.13020       -3.36860
C         -1.27822        3.47947       -4.54582
F         -1.99472        4.61499       -4.33115
F         -0.57359        3.68755       -5.69197
F         -2.18470        2.50737       -4.83575
C         -0.87585        2.32965       -2.31762
C         -0.05770        2.03153       -1.20683
N         -0.65976        1.27211       -0.10605
O         -1.61604        0.53370       -0.38579
O         -0.21859        1.44648        1.03628
H          4.10506       -1.33346        0.87400
H          3.10699       -2.35391       -0.17578
H          4.10435       -1.32203       -2.20145
H          5.37190       -2.03160       -1.19775
H          5.93267        0.25964       -2.08235
H          5.99053        0.18193       -0.31095
H          3.67362        1.12564        0.90474
H          2.70202        3.80408       -2.12706
H          1.28181        4.31855       -4.05201
H         -1.90000        1.95491       -2.36444
