25

O          1.08939       -0.22017        0.28792
C          2.30679       -0.13458        0.16867
N          2.98031        1.04254        0.35696
C          4.32933        1.24243        0.20201
O          4.81289        2.34794        0.43118
N          5.05869        0.13464       -0.22583
C          6.47245        0.31329       -0.57119
C          6.64385        0.76904       -2.00784
C          6.35475        2.09646       -2.36705
C          6.43199        2.51418       -3.69620
C          6.82172        1.61134       -4.67899
Cl         6.90263        2.12009       -6.32012
C          7.14160        0.29765       -4.34039
C          7.04851       -0.12513       -3.00967
C          4.46405       -1.10469       -0.38796
C          3.15817       -1.28426       -0.18848
F          2.56471       -2.48374       -0.32521
H          2.43232        1.85045        0.60904
H          6.92698        1.05237        0.09972
H          7.00985       -0.62846       -0.39938
H          6.05340        2.82056       -1.61227
H          6.18056        3.54012       -3.95161
H          7.45558       -0.40283       -5.10982
H          7.29120       -1.15746       -2.76789
H          5.09562       -1.93686       -0.67996
