22

Cl         3.42877       -0.10496        0.31116
C          1.74669        0.20336        0.12873
C          0.86382       -0.85774       -0.02964
C         -0.49933       -0.60364       -0.19603
Cl        -1.53643       -1.97504       -0.39377
C         -0.98289        0.71669       -0.20521
Cl        -2.67333        1.02728       -0.47160
C         -0.08962        1.79803       -0.02356
C         -0.52813        3.20895       -0.00369
C         -0.28498        4.00632       -1.13944
C         -0.68072        5.34312       -1.18131
C         -1.33330        5.90736       -0.08905
C         -1.58100        5.14166        1.05353
Cl        -2.39378        5.92352        2.36595
C         -1.17334        3.79829        1.10830
Cl        -1.43142        2.86248        2.55235
C          1.28117        1.51713        0.13624
H          1.23459       -1.87999       -0.02840
H          0.21540        3.58153       -2.00924
H         -0.48442        5.94233       -2.06780
H         -1.64602        6.94847       -0.13162
H          1.98977        2.33339        0.27129
