17

O          1.09296        0.60240        0.28343
N          2.21735        0.16614        0.03035
O          2.64547       -0.96554        0.26372
N          3.09813        1.04104       -0.52270
C          4.19524        0.49594       -1.31178
C          4.73505        1.74624       -1.99219
N          3.50070        2.43775       -2.33640
N          3.58594        3.71911       -2.77965
O          4.65915        4.05503       -3.28300
O          2.56702        4.40420       -2.67292
C          2.54760        2.16887       -1.26585
H          3.84002       -0.22128       -2.06428
H          4.96288        0.01924       -0.69331
H          5.33515        1.48934       -2.87134
H          5.34889        2.32785       -1.29112
H          2.44098        3.01029       -0.56874
H          1.57176        1.95833       -1.72140
