49

O          1.18529       -0.16617       -0.08239
C          2.41181       -0.06537       -0.07498
N          3.20220       -0.92539       -0.81203
C          4.58886       -1.16019       -0.72254
C          5.26069       -1.52557       -1.91358
C          6.65971       -1.60432       -1.96312
C          7.33607       -1.34081       -0.79669
N          8.70204       -1.26831       -0.55175
C          8.90151       -0.93337        0.79650
O          9.97253       -0.75509        1.34962
N          7.62969       -0.82736        1.37576
C          6.67385       -1.06092        0.39367
C          5.30427       -0.99530        0.47279
C          3.01162        1.04000        0.71049
C          4.06339        1.78826        0.17579
C          4.78634        2.66847        0.98079
C          5.94045        3.28085        0.46595
C          6.71393        4.12360        1.25810
C          6.32640        4.38153        2.56620
C          5.17517        3.78095        3.08837
C          4.38353        2.89343        2.32296
C          3.23567        2.21391        2.84149
N          2.88737        2.42753        4.20652
N          1.65170        2.43060        4.38960
C          1.34040        2.63894        5.74533
C          1.27619        3.95544        6.22126
C          0.87576        4.21624        7.52974
Cl         0.79009        5.84194        8.08404
C          0.52896        3.17353        8.38581
C          0.59139        1.85606        7.92923
C          0.99319        1.58882        6.61415
Cl         1.03242       -0.06168        6.10464
C          2.56356        1.28479        2.01234
O          1.49265        0.57512        2.50597
H          2.68947       -1.41045       -1.54015
H          4.69797       -1.67965       -2.83230
H          7.17718       -1.82795       -2.88795
H          9.45190       -1.38944       -1.21212
H          7.46963       -0.56409        2.33517
H          4.82290       -0.79657        1.42213
H          4.37196        1.62153       -0.85478
H          6.26801        3.08109       -0.55326
H          7.61966        4.57047        0.85516
H          6.92534        5.04262        3.18790
H          4.90710        4.00191        4.12021
H          1.52831        4.77142        5.54926
H          0.20357        3.37940        9.40265
H          0.31461        1.04341        8.59742
H          0.96163        0.23704        1.75309
