12

O          1.07702       -0.08682        0.03439
C          2.29447       -0.04125        0.05065
O          3.06648       -0.53003       -0.93915
C          3.09878        0.53617        1.14850
C          2.48331        1.07624        2.21351
C          3.19512        1.66540        3.38248
Br         2.75424        3.55418        3.47551
H          4.02680       -0.42772       -0.81857
H          4.17765        0.51408        1.07773
H          1.39354        1.07945        2.25890
H          2.86866        1.20669        4.31893
H          4.28342        1.59942        3.30207
