28

C          2.65876        1.09235        0.01219
C          1.29936        0.44408        0.00272
C          1.27481       -0.96021        0.01050
C          0.07351       -1.66456       -0.00383
C         -1.16216       -1.00160       -0.02799
C         -2.40749       -1.88095       -0.06059
C         -3.26586       -1.75587        1.20162
C         -3.22194       -1.71582       -1.34721
C         -1.14432        0.41053       -0.03035
O         -2.31722        1.11671       -0.05431
C          0.07124        1.15179       -0.01561
C         -0.01736        2.65984       -0.01886
O         -1.01361        3.36069       -0.00901
O          1.17375        3.28615       -0.03391
H          2.80894        1.68780       -0.89374
H          2.78946        1.70498        0.90947
H          3.46126        0.34573        0.02726
H          2.20518       -1.52657        0.02531
H          0.11843       -2.75279       -0.00039
H         -2.07367       -2.92871       -0.07168
H         -3.69930       -0.76194        1.33528
H         -4.09544       -2.47100        1.17103
H         -2.67101       -1.97649        2.09522
H         -2.59505       -1.90505       -2.22610
H         -4.04976       -2.43311       -1.36999
H         -3.65314       -0.71846       -1.46196
H         -3.08770        0.53917       -0.01745
H          0.91200        4.23091       -0.03339
