21

C          2.47887        1.06193        0.01863
C          1.18870        0.29707        0.01723
C          1.17700       -1.09552        0.00285
C         -0.03662       -1.78694       -0.01682
C         -1.26982       -1.10567       -0.01739
C         -2.52985       -1.91090       -0.08266
O         -3.66679       -1.51194       -0.24530
O         -2.30494       -3.23351        0.05528
C         -1.26986        0.30414        0.02359
C         -2.50125        1.16939        0.01876
C         -0.03169        0.98303        0.02618
H          2.54011        1.69871       -0.86986
H          2.54617        1.68643        0.91514
H          3.34401        0.39082        0.01054
H          2.10802       -1.65789       -0.00186
H         -0.00344       -2.87440       -0.04102
H         -3.20057       -3.62561       -0.01293
H         -2.37666        1.99515        0.72949
H         -2.65576        1.59044       -0.97995
H         -3.40880        0.65445        0.33040
H         -0.02223        2.07323        0.03357
