28

C          0.98853       -0.15626       -0.21147
C          0.60531       -0.50819        1.21830
C          1.04951        0.53973        2.24272
C          0.45358        1.93808        2.04764
C         -1.07401        2.01509        2.14473
C         -1.66747        1.61837        3.50434
C         -1.19068        2.46302        4.69641
N         -1.59676        3.87732        4.57272
C         -1.70983        1.88669        6.01729
O         -1.02300        1.64384        7.00042
O         -3.04592        1.72039        6.06849
H          0.47081        0.74298       -0.55773
H          0.71637       -0.97373       -0.88663
H          2.06706        0.00980       -0.29850
H         -0.47623       -0.66953        1.27898
H          1.07501       -1.46487        1.47718
H          0.80976        0.17391        3.24788
H          2.14306        0.62410        2.20624
H          0.90405        2.61486        2.78254
H          0.76001        2.33088        1.07121
H         -1.38514        3.03707        1.89780
H         -1.52229        1.38066        1.37118
H         -2.76129        1.68187        3.42479
H         -1.45349        0.56034        3.70111
H         -0.09782        2.42087        4.76062
H         -1.22094        4.39983        5.36424
H         -1.17501        4.28178        3.73925
H         -3.21709        1.44409        6.99144
