36

C          0.90437       -0.16309        0.16682
C          0.60689        0.75700       -1.00076
O          1.17317        0.22623       -2.21024
C          2.47134        0.55658       -2.44582
O          3.17537        1.21856       -1.69258
C          2.93190        0.07128       -3.82258
O          2.52263       -1.26534       -4.11809
C          2.39679        1.05898       -4.88855
O          2.90399        2.38162       -4.64795
C          2.79008        0.62820       -6.33291
O          2.21725       -0.64437       -6.65411
C          2.33083        1.66478       -7.39100
O          2.81980        2.98895       -7.14957
C          2.75742        1.24331       -8.79770
O          1.99890        1.21907       -9.76211
O          4.09658        0.97878       -8.85757
C          4.61036        0.68484      -10.16406
C          4.33129       -0.75717      -10.54771
H          0.53949       -1.17412       -0.04009
H          0.43030        0.20516        1.08091
H          1.98216       -0.24204        0.34041
H         -0.47503        0.82456       -1.15449
H          0.96571        1.77566       -0.80968
H          4.02822        0.08220       -3.81652
H          2.78880       -1.82194       -3.36141
H          1.30083        1.09479       -4.83334
H          2.53031        2.71499       -3.80833
H          3.88278        0.53427       -6.37175
H          2.34340       -1.23306       -5.87886
H          1.23507        1.70792       -7.39156
H          3.05639        3.04561       -6.20074
H          4.21090        1.38492      -10.90708
H          5.69272        0.84642      -10.12246
H          3.25633       -0.94432      -10.63175
H          4.79819       -0.99849      -11.50697
H          4.71471       -1.44102       -9.78383
