23

C          0.83661        0.00673       -0.12716
O          0.80987       -1.40471       -0.34386
C          0.99492       -1.70933       -1.66598
C         -0.12899       -2.11430       -2.38514
C         -0.01041       -2.49187       -3.72770
C          1.23478       -2.48248       -4.35947
N          1.44318       -2.86051       -5.70346
C          0.49808       -3.30574       -6.60933
C          1.08491       -3.63881       -7.96032
O         -0.70362       -3.44448       -6.40759
C          2.36262       -2.09084       -3.62536
C          2.24797       -1.71771       -2.28136
Cl         3.69283       -1.31493       -1.42686
H          0.23388        0.21894        0.76121
H          0.41399        0.57250       -0.96564
H          1.85808        0.34039        0.07623
H         -1.10275       -2.14355       -1.90242
H         -0.91388       -2.79761       -4.24713
H          2.39957       -2.81089       -6.03131
H          0.91842       -4.69941       -8.16825
H          0.58912       -3.03122       -8.72240
H          2.15918       -3.44144       -8.00793
H          3.34603       -2.08855       -4.08792
