39

C          1.09440       -0.13856       -0.18889
C          0.53259       -1.31628        0.59903
C          1.17277       -1.51494        1.97414
C          0.71364       -0.56110        3.05501
O          0.51448       -0.90122        4.21405
O          0.66597        0.71241        2.59023
C          0.31149        1.74854        3.52428
C         -1.20342        1.95158        3.53668
O         -1.83102        0.90354        4.29152
C         -3.09594        1.39089        4.75097
N         -3.49702        0.72228        5.98325
C         -2.65719       -0.15996        6.64513
C         -3.02550       -0.77694        7.77312
I         -1.85711       -2.09107        8.77534
C         -4.37447       -0.38676        8.19944
O         -4.78114       -0.93389        9.35365
N         -5.19790        0.40587        7.62112
C         -4.79344        0.98664        6.44441
O         -5.54649        1.73208        5.82194
C         -2.95005        2.90492        4.90167
C         -1.65800        3.25181        4.19136
O         -0.71354        3.75780        5.13316
H          0.71543        0.81709        0.18343
H          0.79216       -0.21133       -1.23860
H          2.18781       -0.11623       -0.15088
H         -0.55401       -1.20825        0.69253
H          0.71548       -2.22381        0.01043
H          0.90794       -2.52258        2.31911
H          2.26523       -1.46696        1.91391
H          0.70409        1.51266        4.52057
H          0.81288        2.65523        3.17023
H         -1.60811        1.87769        2.51934
H         -3.83913        1.15989        3.97671
H         -1.68159       -0.34717        6.20200
H         -5.67592       -0.59990        9.53726
H         -2.93253        3.21641        5.95280
H         -3.80547        3.40594        4.43480
H         -1.80185        4.03372        3.43881
H         -0.64042        3.12547        5.87075
