41

C          2.50259       -0.34360        0.49660
C          1.01463       -0.14917        0.33764
C          0.22116       -1.30844        0.36832
C         -1.15445       -1.23807        0.19515
C         -1.76125       -0.00413       -0.00498
C         -1.00500        1.18376       -0.05269
C         -1.78349        2.48565       -0.19218
C         -1.59690        3.30490       -1.45030
C         -1.90012        4.67677       -1.40957
C         -1.72937        5.48208       -2.53657
C         -1.25608        4.92665       -3.72155
C         -0.98309        3.56229       -3.78680
C         -1.17499        2.75230       -2.66510
C          0.40986        1.11555        0.09342
C          1.27450        2.36669       -0.02300
C          2.08794        2.54428       -1.29638
C          2.86122        3.70984       -1.43110
C          3.63364        3.93414       -2.57351
C          3.64901        2.99515       -3.60099
C          2.88747        1.83610       -3.48829
C          2.11127        1.61486       -2.34760
H          2.70565       -1.11998        1.24293
H          2.94190       -0.65528       -0.45616
H          3.01716        0.55372        0.84537
H          0.68212       -2.28169        0.52575
H         -1.75495       -2.14307        0.22512
H         -2.84344        0.02826       -0.11845
H         -1.53967        3.09890        0.68616
H         -2.85963        2.28037       -0.10884
H         -2.26620        5.12917       -0.49034
H         -1.95823        6.54312       -2.48612
H         -1.10030        5.55444       -4.59429
H         -0.60721        3.12641       -4.70838
H         -0.95564        1.69034       -2.74509
H          1.95660        2.39339        0.83633
H          0.66021        3.26366        0.10498
H          2.85881        4.45904       -0.64225
H          4.22057        4.84429       -2.66115
H          4.24921        3.16790       -4.48981
H          2.89112        1.10169       -4.28929
H          1.51864        0.70466       -2.30292
