40

C          2.54306       -0.59926       -0.35034
C          1.09536       -0.24725       -0.16377
C          0.56985        1.05333       -0.04987
O          1.16496        2.28000       -0.03197
C          2.54032        2.52884        0.22636
C          3.03121        2.20866        1.63143
F          2.71783        0.96245        2.03881
F          4.38301        2.31104        1.67729
F          2.53422        3.07822        2.53916
C         -0.81949        1.21895        0.03371
C         -1.64316        0.11902        0.02628
N         -1.17665       -1.13223       -0.04519
C          0.16561       -1.32016       -0.11725
C          0.56290       -2.77533       -0.14902
S          0.39937       -3.40323        1.47693
O         -0.95328       -3.92572        1.45822
C          1.24609       -4.91744        1.51918
N          2.55405       -5.06665        1.53089
C          2.75608       -6.42926        1.55315
C          3.95269       -7.16069        1.57904
C          3.88593       -8.56096        1.58671
C          2.65406       -9.22037        1.56893
C          1.44931       -8.50912        1.54777
C          1.54594       -7.11651        1.54259
N          0.60258       -6.12732        1.52903
H          2.92644       -1.11042        0.53867
H          2.66366       -1.24940       -1.22386
H          3.19630        0.23869       -0.55277
H          3.16764        2.11546       -0.56367
H          2.66095        3.61257        0.10009
H         -1.25641        2.21077        0.10387
H         -2.72260        0.21548        0.08532
H         -0.08901       -3.33944       -0.82329
H          1.59171       -2.94231       -0.47041
H          0.59822       -2.56421        2.50922
H          4.90656       -6.64586        1.59284
H          4.80613       -9.14026        1.60638
H          2.62969      -10.30853        1.57319
H          0.49234       -9.01969        1.53618
H         -0.40393       -6.22684        1.52097
