29

C          1.11133       -0.08092       -0.20502
C          0.75579       -1.50619        0.19067
C          1.17602       -1.86669        1.61806
C          0.56600       -0.99545        2.72650
C         -0.98175       -0.93737        2.77382
C         -1.55833       -2.34265        3.00677
C         -1.48448        0.07108        3.85677
C         -0.97961        1.49829        3.59984
C         -3.01663        0.11574        3.94511
H          0.55358        0.65178        0.38563
H          0.86707        0.08904       -1.25849
H          2.18116        0.10813       -0.07089
H         -0.31940       -1.66631        0.05618
H          1.25787       -2.19396       -0.50042
H          0.94254       -2.92145        1.80109
H          2.26882       -1.79093        1.69044
H          0.93778       -1.36168        3.69229
H          0.97853        0.01105        2.60961
H         -1.34881       -0.58473        1.80230
H         -1.27239       -2.72676        3.99162
H         -2.65028       -2.34555        2.94148
H         -1.21196       -3.05315        2.25099
H         -1.10509       -0.24598        4.83685
H         -1.21246        1.82271        2.58012
H         -1.44172        2.20934        4.29365
H          0.10078        1.57735        3.74976
H         -3.42421       -0.82486        4.32715
H         -3.34734        0.90149        4.63343
H         -3.46375        0.31544        2.96558
