41

C          0.98010        0.14330        0.03094
C          0.63809       -0.75306        1.17785
C          0.87937       -2.12542        1.09975
F          1.41546       -2.64095       -0.01609
C          0.56372       -2.97418        2.16066
F          0.80002       -4.28882        2.04184
C         -0.00307       -2.47761        3.33467
C         -0.41925       -3.40186        4.44029
O         -1.36835       -4.36982        3.96375
C         -2.62995       -3.89590        3.78337
O         -2.99344       -2.75656        4.03559
C         -3.51725       -4.94146        3.20787
C         -4.94472       -5.15269        3.65241
C         -5.58716       -4.31076        4.67529
C         -6.53810       -4.69607        5.54992
Cl        -7.14165       -3.52884        6.68836
C         -7.12939       -6.07257        5.63723
F         -7.71950       -6.44090        4.46786
F         -6.17722       -7.01041        5.89629
F         -8.07360       -6.21006        6.60362
C         -4.66642       -4.64044        2.24543
C         -4.91703       -3.20931        1.82596
C         -4.89279       -5.62260        1.11490
C         -0.20973       -1.10053        3.42837
F         -0.71905       -0.57863        4.55347
C          0.10370       -0.25173        2.36535
F         -0.11865        1.06467        2.49107
H          0.54598        1.14057        0.15452
H          0.58629       -0.26873       -0.90424
H          2.06605        0.24839       -0.05284
H          0.45889       -3.95173        4.79793
H         -0.82502       -2.87086        5.31023
H         -2.96756       -5.85826        2.99599
H         -5.22252       -6.20360        3.72929
H         -5.25778       -3.27406        4.74075
H         -5.01394       -2.51026        2.65872
H         -4.09575       -2.86258        1.18860
H         -5.84337       -3.13539        1.24607
H         -4.05690       -5.58921        0.40934
H         -4.99004       -6.65166        1.47753
H         -5.81317       -5.38268        0.57141
