28

C         -2.38809       -0.10249       -0.05971
N         -0.91509       -0.03183        0.01725
C         -0.20226       -1.17974        0.04557
C          1.19033       -1.14929        0.13387
C          1.86995        0.07179        0.20192
C          3.33865        0.13462        0.31957
C          3.95103        0.79431        1.39169
C          5.34159        0.86161        1.48332
N          6.11876        0.29403        0.53605
C          7.58969        0.38797        0.62646
C          5.56444       -0.35694       -0.51053
C          4.17744       -0.45097       -0.63500
C          1.09669        1.23814        0.16341
C         -0.29345        1.16571        0.06905
H         -2.65084       -0.68290       -0.94779
H         -2.74346       -0.59137        0.85116
H         -2.80699        0.90372       -0.13418
H         -0.75614       -2.11442        0.00303
H          1.73278       -2.09355        0.16739
H          3.35338        1.25794        2.17595
H          5.83450        1.36884        2.30885
H          7.99294       -0.62779        0.61110
H          7.93752        0.96417       -0.23493
H          7.87578        0.88900        1.55414
H          6.23905       -0.79260       -1.24361
H          3.76411       -0.97196       -1.49792
H          1.56693        2.22039        0.19754
H         -0.90990        2.06058        0.03720
