23

N          1.03008       -0.08346       -0.02025
C          0.38642       -1.16767        0.55810
C         -0.54808       -1.94354       -0.28779
N         -1.20753       -2.99757        0.05066
N         -1.08028       -3.43786        1.34962
C         -1.87349       -4.59283        1.64317
C         -2.14990       -5.52952        0.63258
C         -2.88567       -6.68711        0.90310
C         -3.39404       -6.90593        2.18000
C         -3.16076       -5.97200        3.18558
C         -2.39602       -4.83065        2.92188
C         -0.25427       -2.81947        2.29763
O         -0.10615       -3.19486        3.46218
C          0.52978       -1.63846        1.80594
Br         1.72607       -0.83268        3.01548
H          0.43231        0.47314       -0.62825
H          1.51562        0.49569        0.66571
H         -0.66909       -1.57137       -1.31929
H         -1.75046       -5.38861       -0.36896
H         -3.05289       -7.41830        0.11681
H         -3.97126       -7.80189        2.39180
H         -3.57097       -6.12774        4.18009
H         -2.25195       -4.11725        3.72891
