31

C          0.90716       -0.26774       -0.25657
O          0.30860       -0.94982        0.84477
C          0.88171       -2.14612        1.13380
O          1.63044       -2.77609        0.39825
C          0.51213       -2.61924        2.47406
S          1.35377       -1.67822        3.76057
O          2.76705       -1.98046        3.63210
O          0.88710       -0.30918        3.62775
C          0.88995       -2.20072        5.39588
C          1.42678       -3.37686        5.92490
C          1.21803       -3.69321        7.26907
C          0.51405       -2.81686        8.10420
C          0.37428       -3.09884        9.57187
C         -0.00334       -1.62978        7.57046
C          0.17812       -1.32211        6.22036
C         -0.86870       -3.14031        2.78537
C          0.29251       -4.09419        2.72648
H          0.56552        0.77097       -0.23287
H          0.59595       -0.72252       -1.20034
H          1.99912       -0.26424       -0.16702
H          2.04912       -4.03015        5.31811
H          1.64755       -4.60872        7.67100
H          0.95306       -2.36944       10.14852
H         -0.67647       -3.04316        9.87252
H          0.74298       -4.09817        9.82512
H         -0.51623       -0.91789        8.21505
H         -0.18602       -0.36783        5.84402
H         -1.32024       -2.94346        3.74945
H         -1.59131       -3.19025        1.97593
H          0.36311       -4.76459        1.87323
H          0.61457       -4.56472        3.64260
