30

Cl        -3.04496        0.52430        0.35347
C         -1.48484       -0.19610        0.31618
C         -1.32812       -1.48664       -0.16393
C         -0.04910       -2.04764       -0.23588
C          1.10941       -1.34033        0.16858
C          2.47750       -2.01124       -0.00550
C          3.68102       -1.16224       -0.48487
N          3.58909       -0.57415       -1.80257
C          2.58399        0.13676       -2.37968
N          2.96386        0.56551       -3.56331
C          4.24006        0.10161       -3.66132
N          4.67631       -0.58888       -2.60568
O          2.79540       -2.59268        1.27889
C          3.38152       -3.86066        0.99429
C          2.72830       -4.29621       -0.28695
O          2.37600       -3.09343       -0.96628
C          0.89747       -0.06726        0.73825
Cl         2.14852        0.88838        1.44561
C         -0.38196        0.51044        0.77643
H         -2.18953       -2.06258       -0.49349
H          0.02998       -3.06220       -0.62480
H          3.97807       -0.37613        0.20926
H          4.55871       -1.82399       -0.52435
H          1.62187        0.32738       -1.93397
H          4.87217        0.27676       -4.52193
H          3.20996       -4.56084        1.81621
H          4.46130       -3.72675        0.87194
H          1.81073       -4.86201       -0.10017
H          3.38932       -4.90215       -0.91355
H         -0.51693        1.51469        1.17311
