61

C          1.03956       -0.42343        0.13098
C          0.82082        0.44275        1.36219
C          1.23738        1.90188        1.15667
C          0.48668        2.63986        0.04265
C         -1.03440        2.69236        0.22154
C         -1.50443        3.46592        1.45933
C         -1.12553        4.95198        1.46727
C         -1.66883        5.74703        0.27625
C         -3.19641        5.85041        0.24254
C         -3.81641        6.67562        1.38015
C         -3.23002        8.07381        1.60013
C         -3.60980        9.06014        0.52635
O         -4.17542       10.12725        0.73962
O         -3.27747        8.61537       -0.71258
C         -3.80331        9.36833       -1.82101
C         -5.29121        9.03082       -2.06441
O         -6.09322        9.32818       -0.91037
C         -5.85246        9.78198       -3.29863
O         -5.23643        9.30064       -4.50141
C         -7.40161        9.65392       -3.41758
O         -8.05141       10.20513       -2.26365
C         -7.93206       10.36344       -4.69211
O         -7.48790        9.69534       -5.87695
C         -9.46735       10.44220       -4.72089
O         -9.99066       11.26301       -3.68050
H          0.40927       -0.10424       -0.70435
H          0.78847       -1.46511        0.35355
H          2.08501       -0.38692       -0.19111
H         -0.22867        0.38305        1.67034
H          1.40699        0.02765        2.19054
H          1.11261        2.44020        2.10352
H          2.31061        1.93550        0.93146
H          0.88771        3.65707       -0.03573
H          0.70950        2.16733       -0.92098
H         -1.47781        3.12971       -0.68006
H         -1.43767        1.67486        0.26915
H         -2.59282        3.36544        1.53998
H         -1.10188        2.99639        2.36394
H         -1.47814        5.40042        2.40334
H         -0.03433        5.05143        1.48747
H         -1.22280        6.74722        0.28318
H         -1.32531        5.29806       -0.66187
H         -3.49681        6.26709       -0.72425
H         -3.64227        4.84936        0.25659
H         -4.89382        6.76238        1.18885
H         -3.71797        6.11096        2.31508
H         -3.64213        8.46373        2.53985
H         -2.14408        8.07062        1.72239
H         -3.65220       10.44009       -1.64810
H         -3.20350        9.08901       -2.69323
H         -5.37371        7.94885       -2.22484
H         -5.62010        9.98932       -0.35625
H         -5.61525       10.84858       -3.19623
H         -4.31793        9.62376       -4.53281
H         -7.66299        8.58986       -3.48154
H         -7.62482        9.78039       -1.48416
H         -7.54224       11.38900       -4.70951
H         -6.54886        9.45619       -5.73002
H         -9.80531       10.85691       -5.67632
H         -9.90826        9.44290       -4.63590
H         -9.51909       10.99097       -2.86254
