35

C          0.99583        0.34138        0.51098
C          0.87264       -1.11777        0.07073
C          1.57087       -2.02206        1.09225
C         -0.59212       -1.55752       -0.08783
C         -1.43536       -0.83803       -1.15827
C         -1.08841       -1.04300       -2.67401
C         -0.05614       -0.00867       -3.21045
C         -0.49537        1.42019       -3.53402
O         -1.42150        1.93466       -2.59696
C         -0.49407       -2.44173       -2.86926
O          0.70856       -2.67278       -2.97115
N         -1.38551       -3.48142       -2.87318
C         -2.69001       -3.36760       -3.23048
S         -3.66066       -4.70460       -3.39967
N         -3.15494       -2.11787       -3.49378
C         -2.42198       -0.95872       -3.42848
O         -2.91511        0.08296       -3.85778
H          0.47004        0.51639        1.45578
H          0.58401        1.02401       -0.23751
H          2.04699        0.61347        0.65623
H          1.40193       -1.24231       -0.87785
H          1.09968       -1.94811        2.07832
H          1.53077       -3.06962        0.77468
H          2.62574       -1.74767        1.19857
H         -0.63385       -2.63939       -0.26109
H         -1.09878       -1.40608        0.87594
H         -2.46790       -1.17586       -0.98673
H         -1.46620        0.22858       -0.91823
H          0.76431        0.06674       -2.48976
H          0.41221       -0.39908       -4.12496
H          0.38082        2.07744       -3.53754
H         -0.93095        1.48091       -4.53783
H         -2.30497        1.66783       -2.92760
H         -0.98115       -4.41007       -2.89075
H         -4.08331       -2.03590       -3.89047
