26

C          1.09619        0.15496       -0.12758
C          0.67400       -1.02939       -0.98434
C          1.15510       -2.38130       -0.44449
C          0.61985       -2.76495        0.94841
C         -0.91588       -2.83381        1.05618
C         -1.66049       -3.70205        0.03395
C         -1.43354       -5.19672        0.19221
C          1.25041       -4.02588        1.51199
O          1.14279       -4.41409        2.66427
O          1.95216       -4.75347        0.62582
H          0.60535        0.13972        0.84983
H          0.81968        1.09274       -0.62028
H          2.17966        0.16184        0.02815
H         -0.41481       -1.02650       -1.10118
H          1.09277       -0.89387       -1.98906
H          0.89337       -3.15836       -1.17322
H          2.25298       -2.36539       -0.41237
H          0.95897       -1.98348        1.64243
H         -1.19634       -3.16580        2.06443
H         -1.30886       -1.81294        0.96623
H         -2.73413       -3.51311        0.15982
H         -1.41820       -3.39893       -0.98981
H         -1.54996       -5.50956        1.23458
H         -2.16224       -5.75158       -0.40808
H         -0.44031       -5.49013       -0.15508
H          2.25331       -5.52845        1.14487
