27

N          0.88103       -0.19814        0.30255
C          0.45541        1.21015        0.51602
C          1.05912        2.22304       -0.47222
C          0.59870        2.13652       -1.90296
C          0.56844        1.01863       -2.71596
N          0.07851        1.38141       -3.94176
C         -0.16716        2.73180       -3.97481
C         -0.63608        3.53475       -5.02183
C         -0.77462        4.90326       -4.77753
C         -0.46255        5.44227       -3.53271
C         -0.00484        4.62214       -2.49391
C          0.15033        3.23657       -2.71346
C         -1.06890        1.33459        0.54088
O         -1.70649        2.22851        1.07740
O         -1.70874        0.36473       -0.15346
H          0.22120       -0.60541       -0.36662
H          1.79128       -0.20648       -0.15363
H          0.80161        1.46625        1.52474
H          0.83648        3.22855       -0.09191
H          2.15347        2.13586       -0.45991
H          0.84276       -0.01091       -2.53448
H         -0.06181        0.75534       -4.72238
H         -0.87745        3.11708       -5.99374
H         -1.12869        5.55568       -5.57240
H         -0.57293        6.51053       -3.36336
H          0.23489        5.06053       -1.52985
H         -2.65213        0.61787       -0.08137
