40

C          1.10929       -0.08232       -0.18545
C          0.52327        1.24799        0.33032
C          0.77059        2.33360       -0.72926
C         -1.01670        1.07321        0.42049
C          1.07558        1.60409        1.76369
O          0.74590        0.48962        2.61477
C          2.60582        1.90978        1.94386
C          3.22079        3.11671        1.18464
C          2.70390        4.54929        1.28363
C          1.62149        4.93562        2.09096
C          1.22807        6.27462        2.19840
C          1.91210        7.25941        1.49905
Cl         1.44486        8.90526        1.66406
C          2.97885        6.91664        0.68037
C          3.36691        5.57639        0.57006
Cl         4.71248        5.24055       -0.46738
N          3.03465        1.90384        3.35783
C          3.26443        2.94141        4.21419
N          3.68654        2.49181        5.37255
C          3.76371        1.14950        5.16325
N          3.43020        0.74640        3.93726
H          0.70813       -0.32937       -1.17581
H          0.86471       -0.91866        0.47847
H          2.19858       -0.03259       -0.27851
H          0.12494        2.18576       -1.60408
H          0.55692        3.33244       -0.33938
H          1.78997        2.30496       -1.11876
H         -1.30263        0.24727        1.07944
H         -1.49058        1.98739        0.79618
H         -1.45146        0.85632       -0.56256
H          0.49060        2.43610        2.15500
H         -0.18657        0.55242        2.88050
H          3.13415        1.03034        1.54478
H          4.27821        3.16056        1.48803
H          3.25220        2.85357        0.12464
H          1.07166        4.23264        2.70484
H          0.39705        6.54002        2.84908
H          3.51627        7.68999        0.13766
H          3.14243        3.98520        3.97439
H          4.08568        0.44813        5.92167
