30

N          1.03624       -0.14044       -0.42364
C          0.39099        1.10217       -0.56987
C          0.70934        1.85945       -1.70311
C          0.01272        3.02600       -1.99895
C         -1.04918        3.41853       -1.18733
O         -1.69461        4.58330       -1.49332
C         -1.43041        2.64848       -0.07369
C         -0.70319        1.49719        0.24288
C         -1.04030        0.72839        1.47115
O         -0.34811       -0.24149        1.76813
C         -2.14237        1.17840        2.36155
C         -2.45731        0.49195        3.54949
O         -1.79838       -0.65293        3.90018
C         -3.45319        0.95609        4.40714
C         -4.14460        2.12199        4.09134
Br        -5.46081        2.72969        5.32414
C         -3.89373        2.81277        2.89259
N         -4.47916        4.08414        2.68534
C         -2.86918        2.32845        2.03373
C         -2.62251        2.99737        0.73193
O         -3.46697        3.77995        0.30349
H          0.87702       -0.54224        0.51151
H          2.01533       -0.15173       -0.68540
H          1.50518        1.53342       -2.36945
H          0.30162        3.60498       -2.87149
H         -1.40884        4.91341       -2.35982
H         -2.11872       -0.99795        4.74859
H         -3.68297        0.42626        5.32737
H         -5.40609        4.18214        3.08950
H         -4.45170        4.35857        1.69313
