15

C          1.00707        0.08908       -0.00233
C          0.48177        1.38527        0.61099
C          1.00918        2.59605       -0.15762
C         -1.04591        1.38392        0.64393
O          0.96527        1.45300        1.95307
H          0.67431       -0.03185       -1.03837
H          0.66997       -0.77999        0.57424
H          2.10273        0.06507        0.01542
H          0.68028        2.58556       -1.20185
H          0.66875        3.53044        0.30303
H          2.10464        2.62292       -0.13802
H         -1.42200        0.54285        1.23748
H         -1.42770        2.29392        1.12071
H         -1.47107        1.31666       -0.36276
H          0.63427        2.27675        2.35009
