11

F          0.96294       -0.03863        0.09499
C          2.31897       -0.08392        0.05332
F          2.73644        1.15893       -0.28226
F          2.73644       -0.31502        1.31977
C          2.80027       -1.13463       -0.91339
F          2.32517       -2.36660       -0.56671
F          2.32517       -0.89158       -2.16992
C          4.30682       -1.11834       -0.89840
F          4.81577        0.07691       -1.27778
F          4.81576       -1.39704        0.32426
F          4.81684       -2.04409       -1.75013
