25

C         -1.75222       -1.66629       -0.00970
C         -0.53239       -0.79296       -0.00202
C          0.73867       -1.38418       -0.00195
C          1.89696       -0.60000        0.00882
C          1.81570        0.79827        0.01968
C          3.08364        1.63205        0.03782
C          3.19825        2.51223       -1.20925
C          3.18229        2.47528        1.31163
C          0.54486        1.38933        0.01687
C         -0.60829        0.60340        0.00571
O         -1.79481        1.28182        0.00402
H         -2.36169       -1.47349        0.87907
H         -2.34777       -1.47751       -0.90862
H         -1.48887       -2.72933       -0.00442
H          0.84170       -2.46734       -0.00901
H          2.86587       -1.09485        0.01002
H          3.94744        0.95393        0.03307
H          2.39942        3.26016       -1.25852
H          4.15439        3.04675       -1.21636
H          3.14579        1.90719       -2.12127
H          3.11744        1.84381        2.20479
H          4.13834        3.00875        1.34719
H          2.38283        3.22175        1.37217
H          0.43859        2.47134        0.02463
H         -2.52601        0.64625       -0.01181
