14

O          1.15843       -0.00503        0.14322
C          0.58486        1.18452       -0.36448
C         -0.66544        1.56209        0.39003
C         -0.77682        3.03939        0.08575
O          0.56084        3.53925       -0.07231
C          1.44988        2.41558       -0.14929
H          1.99048       -0.15993       -0.33649
H          0.35739        1.05114       -1.42863
H         -1.54777        0.99288        0.08368
H         -0.52814        1.39639        1.46573
H         -1.28541        3.59432        0.87907
H         -1.30860        3.21108       -0.85621
H          2.02149        2.35629        0.78364
H          2.15988        2.56622       -0.96811
