28

C          1.74328        2.13527       -0.54678
C          0.68074        1.10483       -0.39746
N         -0.36973        1.22762        0.38389
C         -1.17361        0.10123        0.28286
C         -2.44944        0.06929        1.04596
C         -0.67012       -0.90055       -0.53017
C         -1.27643       -2.16706       -0.87042
O         -2.46099       -2.25148       -1.20483
N         -0.53716       -3.33150       -0.89456
C          0.64938       -3.70918       -0.24049
C          1.26766       -4.88639       -0.68095
C          2.43998       -5.34708       -0.07649
C          2.99511       -4.64466        0.98896
C          2.37097       -3.49035        1.45497
C          1.19801       -3.02855        0.84856
S          0.76829       -0.35570       -1.29338
H          1.78120        2.50830       -1.57512
H          1.54647        2.98591        0.11359
H          2.72366        1.72535       -0.28392
H         -2.50438        0.90583        1.74973
H         -3.30214        0.14203        0.36387
H         -2.53625       -0.85931        1.61870
H         -1.01379       -4.05821       -1.41443
H          0.85631       -5.45145       -1.51392
H          2.91800       -6.25390       -0.43815
H          3.90608       -5.00124        1.46279
H          2.78983       -2.95084        2.30110
H          0.72331       -2.15373        1.27972
