25

O          0.34699       -0.99702        0.30817
N          1.43519       -0.42520        0.16740
O          1.68906        0.73593        0.50286
C          2.45651       -1.16141       -0.48802
C          3.72202       -1.58938       -0.04549
O          4.42884       -1.48926        1.10333
C          4.30583       -0.28028        1.84247
C          5.10863        0.87637        1.24176
O          4.74888        1.15536       -0.10661
N          4.35338       -2.33134       -0.95724
N          3.49315       -2.42103       -1.99904
C          3.67972       -3.14658       -3.17782
C          2.73646       -3.13858       -4.13403
C          1.53320       -2.35335       -3.92133
C          1.33664       -1.65716       -2.78585
C          2.33176       -1.68430       -1.76183
H          3.26457       -0.02785        2.03669
H          4.73081       -0.48798        2.83236
H          4.93869        1.78360        1.83006
H          6.18048        0.65446        1.26098
H          5.21497        0.50184       -0.66054
H          4.60443       -3.70325       -3.25462
H          2.84684       -3.69937       -5.05592
H          0.78775       -2.34540       -4.71207
H          0.42678       -1.07892       -2.64566
