30

C          0.99336        0.17635        0.04516
N          0.41964       -1.08403        0.44362
C         -0.37418       -1.31718        1.53210
O         -0.81226       -2.44087        1.75366
O         -0.60058       -0.18224        2.29889
C         -1.39558       -0.31413        3.44657
C         -1.12046       -1.24568        4.43662
C         -1.91904       -1.33825        5.60104
C         -1.51788       -2.43103        6.55062
C         -3.00357       -0.44078        5.77886
S         -4.19752       -0.39052        7.14386
C         -3.67250       -1.52620        8.44252
C         -3.23784        0.54064        4.75939
C         -4.34755        1.56750        4.84326
C         -2.42848        0.59085        3.60957
H          0.67961        0.99875        0.69064
H          0.68231        0.37931       -0.98274
H          2.08141        0.07922        0.07615
H          0.59550       -1.90733       -0.11694
H         -0.28280       -1.92609        4.29616
H         -1.19030       -2.01420        7.50492
H         -2.32790       -3.15225        6.67459
H         -0.66443       -3.00626        6.17157
H         -3.74222       -2.56413        8.11486
H         -2.67700       -1.28306        8.81581
H         -4.36488       -1.41679        9.28338
H         -5.32662        1.07876        4.87044
H         -4.21630        2.20454        5.72403
H         -4.34923        2.23127        3.97121
H         -2.60940        1.33338        2.83668
