14

N          0.94337       -0.09046        0.22861
C          0.23707       -0.97605       -0.59323
C         -0.94108       -0.56417       -1.22186
C         -1.71705       -1.47801       -1.93834
Cl        -3.14426       -0.94097       -2.73740
C         -1.35529       -2.81940       -2.00373
C         -0.21649       -3.24245       -1.32650
Cl         0.22685       -4.90560       -1.36208
C          0.56477       -2.33449       -0.60829
H          0.85296        0.88728       -0.03232
H          1.91056       -0.35327        0.39516
H         -1.25844        0.47323       -1.15584
H         -1.96270       -3.52829       -2.55841
H          1.43255       -2.69048       -0.05922
