20

C          1.46796        0.13085        0.32904
C          0.33375        1.14895        0.26425
C          0.79823        2.52430       -0.22337
C          1.09760        2.55962       -1.72035
C         -0.11951        2.11360       -2.52456
C         -0.58505        0.72192       -2.12299
C         -0.78213        0.62184       -0.62483
O         -1.75075        0.02868       -0.14848
H          1.85562       -0.12080       -0.66325
H          1.11763       -0.80217        0.78430
H          2.29875        0.50879        0.93364
H         -0.07676        1.27312        1.27431
H          0.00967        3.25835       -0.01065
H          1.68323        2.84640        0.33781
H          1.95585        1.91844       -1.95181
H          1.37444        3.57906       -2.01246
H          0.11843        2.12834       -3.59407
H         -0.93544        2.83042       -2.36806
H          0.14463       -0.03634       -2.42575
H         -1.53354        0.49440       -2.62126
