27

C          1.52443        0.03712        0.23473
C          0.80949        1.21834       -0.39637
C          0.96681        1.30845       -1.91524
C          0.18749        0.30140       -2.81269
C         -0.97913       -0.46272       -2.16969
C         -2.15459        0.42135       -1.89111
C         -2.38910        1.58262       -2.52527
C         -3.51035        2.49082       -2.13426
C         -1.50090        1.97239       -3.66778
O         -1.72075        2.99740       -4.31126
C         -0.36198        1.03653       -4.04768
H          1.27796       -0.90939       -0.25087
H          1.24533       -0.04045        1.29094
H          2.60901        0.17225        0.18427
H         -0.24719        1.21488       -0.11409
H          1.22623        2.13395        0.04293
H          0.69885        2.33495       -2.19739
H          2.03350        1.22558       -2.16604
H          0.91525       -0.44536       -3.15831
H         -1.30824       -1.26821       -2.83928
H         -0.66376       -0.95416       -1.24627
H         -2.81366        0.10549       -1.08509
H         -4.44340        1.92941       -2.01860
H         -3.27839        2.97463       -1.17867
H         -3.69234        3.27917       -2.86929
H         -0.74574        0.32398       -4.78745
H          0.43251        1.62225       -4.52409
