21

C          1.03036        0.04044        0.04863
N          0.61933       -0.43343        1.35588
C          0.16784        0.51234        2.27915
O          0.08046        1.71770        2.07221
C         -0.18405       -0.06623        3.52305
N         -0.66461        0.50433        4.66608
C         -0.81739       -0.51722        5.55538
Cl        -1.39594       -0.17001        7.10944
N         -0.47594       -1.68695        5.06915
C         -0.07990       -1.39601        3.79785
N          0.38861       -2.28589        2.86160
C          0.50490       -3.69557        3.19006
C          0.77209       -1.81589        1.60187
O          1.22987       -2.56860        0.73745
H          0.69322        1.06206       -0.14518
H          0.62838       -0.61636       -0.72944
H          2.12367        0.01038       -0.00097
H         -0.86264        1.48281        4.82622
H          1.20608       -3.81050        4.02267
H         -0.47840       -4.07695        3.48315
H          0.86829       -4.28318        2.34302
