32

C          1.12938        0.15891        0.09606
C          0.55413       -0.02118        1.46194
C          0.27322       -1.21483        1.99447
N         -0.27906       -1.36879        3.25197
C         -0.61393       -2.69961        3.74725
C          0.60378       -3.54691        4.10019
C          0.11008       -4.94919        3.80887
N          1.14388       -5.97531        3.57950
N          2.26377       -5.63514        3.15238
N          3.27837       -5.32337        2.73846
C         -0.85897       -4.75743        2.63658
C         -0.27038       -4.96702        1.23540
O         -0.06766       -6.34051        0.93035
O         -1.33683       -3.40348        2.72321
C         -0.55481       -0.27466        4.05833
O         -1.01153       -0.35174        5.19656
N         -0.28006        0.94985        3.50580
C          0.22964        1.18204        2.25973
O          0.40859        2.31531        1.82827
H          0.62389        0.96468       -0.44499
H          1.02111       -0.75041       -0.50614
H          2.19603        0.39542        0.16116
H          0.47080       -2.12186        1.43397
H         -1.28251       -2.63463        4.61358
H          1.46241       -3.27268        3.47948
H          0.91096       -3.41317        5.14314
H         -0.47938       -5.27765        4.67562
H         -1.71533       -5.43109        2.75729
H         -0.94589       -4.55227        0.47900
H          0.68042       -4.43682        1.11788
H          0.30671       -6.77885        1.71589
H         -0.50869        1.75860        4.06180
