18

O          3.10733       -0.00365       -0.00059
C          1.89014       -0.00350       -0.00107
N          1.05198        1.12120       -0.00059
C         -0.27037        0.69511       -0.00020
C         -1.43012        1.43406        0.00157
C         -2.63303        0.71644        0.00259
C         -2.62832       -0.70515        0.00127
N         -3.90865       -1.42618        0.00227
O         -3.87092       -2.66450       -0.00279
O         -4.94858       -0.75315        0.00812
C         -1.43036       -1.43917       -0.00073
C         -0.27133       -0.70085       -0.00114
N          1.05149       -1.12824       -0.00180
H          1.39292        2.06898        0.00027
H         -1.42073        2.51790        0.00255
H         -3.57211        1.26906        0.00454
H         -1.40819       -2.52300       -0.00160
H          1.39331       -2.07605       -0.00175
