42

C          0.93280        0.10627       -0.12054
C          0.51154        1.46417       -0.61035
O         -0.12496        1.61169       -1.65078
C          0.83512        2.64662        0.21982
C         -0.20670        3.54585        0.50244
C         -0.00363        4.71627        1.27291
C         -1.18490        5.66280        1.55577
C         -1.78476        6.16527        0.22471
C         -2.27069        4.90564        2.35008
C         -0.80067        6.91144        2.38174
C          1.29617        4.96818        1.74378
C          2.33214        4.08128        1.45339
C          2.10748        2.91992        0.70000
C          3.39984        2.20806        0.44109
C          4.30543        2.79960        1.52981
C          3.79667        4.23439        1.80634
C          4.03062        4.61919        3.27001
C          4.46817        5.25303        0.87579
H          0.12933       -0.60768       -0.32592
H          1.09823        0.11061        0.96038
H          1.83967       -0.21066       -0.64003
H         -1.19588        3.32342        0.10302
H         -2.19485        5.34969       -0.38069
H         -2.60302        6.87296        0.40245
H         -1.02717        6.67634       -0.38116
H         -1.86815        4.51134        3.29077
H         -3.11144        5.56432        2.59722
H         -2.68060        4.05933        1.78800
H         -0.39959        6.63804        3.36467
H         -0.05129        7.52196        1.86443
H         -1.67281        7.55260        2.55757
H          1.52624        5.86019        2.31790
H          3.77059        2.45179       -0.55986
H          3.33448        1.12536        0.55978
H          5.36207        2.76697        1.24188
H          4.20557        2.18229        2.43430
H          3.66557        5.62995        3.48400
H          3.51296        3.93547        3.95301
H          5.09829        4.59287        3.51496
H          4.33390        4.99387       -0.18076
H          4.04989        6.25629        1.01905
H          5.54512        5.30985        1.06972
