24

N          1.03547        0.31106       -0.12828
C          0.28505        1.43422       -0.29687
O         -0.93764        1.36728       -0.20537
N          1.05070        2.54643       -0.56011
N          0.40019        3.60825       -0.43494
C          1.21561        4.81264       -0.65166
C          2.07809        5.05794        0.55205
C          3.38990        5.33482        0.49580
C          4.16370        5.49752        1.67646
C          4.03538        4.89320        2.92758
C          5.06206        5.38685        3.76841
C          5.76138        6.26993        2.98831
N          6.88815        7.09956        3.27318
O          7.30920        7.83772        2.37386
O          7.35473        7.01237        4.41770
O          5.25937        6.33468        1.72971
H          0.55979       -0.55377        0.07928
H          2.04048        0.35287       -0.18123
H          1.80523        4.72124       -1.57198
H          0.53791        5.66340       -0.78075
H          1.56550        4.98333        1.50856
H          3.89686        5.45859       -0.45730
H          3.28035        4.16376        3.19164
H          5.25974        5.13509        4.80117
