51

C          1.35371       -0.82026        0.56696
C          0.49642       -0.97276        1.85944
C         -0.03254        0.40450        2.29049
C          1.08126        1.27137        2.87845
C          1.54570        0.73577        4.24622
C          1.65896       -0.84038        4.26889
C          2.99951       -1.36893        4.82453
C          3.36770       -0.75285        6.14987
C          3.18156        0.73473        6.17403
O          2.30405        1.09881        7.26870
C          3.66677        1.50040        7.40988
C          3.85354        2.96883        7.36811
O          4.07078        3.59548        8.39478
C          3.84691        3.52069        5.96981
C          4.01406        4.96853        5.90731
N          4.25116        6.09896        5.75457
C          2.58807        2.99030        5.22860
C          2.80884        1.47129        4.85613
C          3.93234        1.48084        3.78402
C          1.38291       -1.62545        2.95662
C          0.74323       -2.99963        3.25492
C         -0.00230       -3.35701        1.98076
C         -0.61480       -2.02189        1.56051
O         -1.80773       -1.79622        2.30236
H          0.92665       -0.07271       -0.10991
H          1.41655       -1.76044        0.00591
H          2.38206       -0.51278        0.78757
H         -0.48145        0.91465        1.42899
H         -0.82775        0.31259        3.03859
H          0.71162        2.29680        2.99341
H          1.90768        1.31905        2.16423
H          0.71599        0.96391        4.93571
H          0.89304       -1.14950        4.99617
H          2.95856       -2.45765        4.94689
H          3.80997       -1.19950        4.10923
H          2.74264       -1.21830        6.92396
H          4.40485       -1.00429        6.39784
H          4.27591        0.97304        8.13531
H          4.76308        3.12331        5.52287
H          1.70464        3.09958        5.87531
H          2.38019        3.58800        4.33375
H          3.97807        0.56874        3.18969
H          3.74943        2.28701        3.05845
H          4.92927        1.63656        4.19898
H          2.35754       -1.85089        2.50039
H          0.03712       -2.94117        4.09187
H          1.49194       -3.75549        3.51296
H         -0.74927       -4.13509        2.16462
H          0.70688       -3.72009        1.22791
H         -0.90060       -2.04275        0.50373
H         -1.58960       -1.76459        3.24814
