28

C          0.93807        0.26199       -0.14509
C          0.42871        0.33883        1.26643
C         -0.44875        1.51076        1.61499
C          0.72627       -0.57580        2.21058
C          1.61020       -1.78282        2.04919
C          2.86442       -1.72864        2.93597
C          2.61097       -1.69950        4.46309
C          1.84409       -2.94347        4.92696
C          3.93378       -1.60305        5.25075
C          4.63521       -0.33092        5.02330
N          5.19678        0.66960        4.84639
H          0.55521        1.08091       -0.76226
H          0.61679       -0.67180       -0.61889
H          2.03084        0.31983       -0.16685
H         -1.39287        1.17175        2.05434
H          0.06008        2.16549        2.33059
H         -0.69743        2.11345        0.73610
H          0.28986       -0.44552        3.20010
H          1.02444       -2.68234        2.26563
H          1.94058       -1.88960        1.00990
H          3.48884       -2.59938        2.69622
H          3.44727       -0.84571        2.64408
H          2.00659       -0.81774        4.71034
H          2.37963       -3.86060        4.65866
H          1.71059       -2.93638        6.01411
H          0.84533       -2.98838        4.48311
H          3.72486       -1.68944        6.32455
H          4.59119       -2.44090        4.98998
