36

C          1.60112        0.39539       -0.35748
C          0.88770       -0.24472       -1.53981
C          1.04006       -1.76694       -1.59196
C          0.32781       -2.53119       -0.47525
O         -1.10199       -2.43338       -0.59125
C         -1.70855       -1.51819        0.19947
O         -1.16587       -0.70689        0.93363
C         -3.17121       -1.58152        0.07637
C         -3.80910       -2.74536       -0.10309
C         -5.27176       -2.84283       -0.00478
O         -5.81444       -3.83760        0.45090
O         -5.87832       -1.73197       -0.48310
C         -7.30812       -1.67365       -0.34302
C         -8.02037       -2.06602       -1.63807
C         -7.86801       -3.53325       -2.04687
C         -8.58144       -4.49977       -1.11228
H          1.27028       -0.01512        0.59935
H          1.40657        1.47261       -0.34140
H          2.68315        0.24845       -0.43043
H         -0.17117        0.03306       -1.53267
H          1.30888        0.17821       -2.45999
H          0.64291       -2.10887       -2.55566
H          2.10659       -2.02175       -1.57346
H          0.56513       -3.59626       -0.57980
H          0.67792       -2.23763        0.52008
H         -3.69181       -0.65271        0.27828
H         -3.28850       -3.69185       -0.19033
H         -7.65823       -2.25339        0.51765
H         -7.54544       -0.62655       -0.12189
H         -9.08690       -1.82862       -1.54368
H         -7.62322       -1.44969       -2.45402
H         -8.28919       -3.65936       -3.05171
H         -6.80914       -3.80028       -2.12374
H         -9.66346       -4.33768       -1.13757
H         -8.38688       -5.53181       -1.42142
H         -8.25059       -4.39655       -0.07622
