53

O          2.02204        0.55158       -0.67254
C          3.22665        0.44312       -0.83656
O          4.13417        1.38639       -0.52570
C          3.85213       -0.83236       -1.25893
C          4.40522       -1.70118       -0.38440
C          4.38709       -1.48514        1.11062
S          3.28756       -2.57297        2.05884
C          2.35471       -3.43547        0.89739
N          2.66451       -4.60543        0.39006
N          1.60248       -4.96764       -0.39653
N          0.65361       -4.04398       -0.36381
N          1.12539       -3.06372        0.42749
C          0.35394       -1.88921        0.73625
S         -0.82696       -1.34949       -0.48503
O         -1.86199       -2.34182       -0.66225
O         -1.16865        0.03399       -0.23350
O          0.10374       -1.33726       -1.81107
C          5.19899       -2.91963       -0.85220
S          4.91494       -3.50600       -2.55823
C          3.41020       -2.55157       -2.88534
C          3.15261       -2.04916       -4.33894
N          4.10076       -2.53004       -5.37505
C          3.80899       -2.92984       -6.65309
O          4.70493       -3.44442       -7.32701
C          2.37440       -2.77553       -7.20828
O          1.50428       -3.64730       -6.48015
C          1.86222       -1.34359       -7.19343
C          2.71923       -0.27451       -7.50572
C          2.26519        1.04410       -7.45221
C          0.94115        1.31399       -7.11762
C          0.06531        0.26536       -6.85034
C          0.52017       -1.05389       -6.89448
C          3.41068       -0.62276       -3.72255
O          3.38994        0.54494       -4.04715
N          3.75615       -1.18757       -2.55564
H          5.02715        1.20364       -0.87918
H          5.40315       -1.59196        1.50585
H          4.07917       -0.46842        1.37047
H         -0.19490       -2.08527        1.66156
H          1.04052       -1.05823        0.90629
H          0.01717       -0.44431       -2.21925
H          6.26238       -2.65851       -0.79252
H          5.05219       -3.77140       -0.18538
H          2.50325       -2.91554       -2.39020
H          2.10317       -2.17472       -4.61525
H          5.05587       -2.74907       -5.10530
H          2.37437       -3.11308       -8.25190
H          1.80071       -4.55381       -6.67734
H          3.75963       -0.45165       -7.77275
H          2.95032        1.86167       -7.66122
H          0.59303        2.34212       -7.06767
H         -0.97230        0.47380       -6.60288
H         -0.18095       -1.85847       -6.67831
