20

C          1.01972        0.18074       -0.11406
C          0.47899       -0.62980       -1.27890
O          1.10937       -1.90362       -1.28414
C         -1.06290       -0.68127       -1.28494
O         -1.71402       -0.02051       -2.10122
N         -1.75269       -1.41604       -0.36704
C         -1.25466       -2.29190        0.68558
C         -1.55619       -1.72083        2.07148
O         -2.96215       -1.68885        2.30565
H          0.86636       -0.33117        0.84005
H          0.54799        1.16603       -0.05753
H          2.10212        0.31388       -0.21981
H          0.76088       -0.12968       -2.21506
H          1.85936       -1.84959       -1.90137
H         -2.75149       -1.41119       -0.53393
H         -1.77214       -3.24786        0.55396
H         -0.18403       -2.46178        0.58577
H         -1.10434       -2.35105        2.84306
H         -1.16677       -0.70386        2.18379
H         -3.33449       -1.03596        1.68794
