49

C          1.33638       -0.89254        1.12234
O          0.58423        0.14259        1.76029
C          1.28977        0.96948        2.57780
O          2.45435        0.79628        2.91550
C          0.44821        2.15245        3.00877
C          0.85152        3.46292        2.31229
C          0.28904        3.74960        0.92939
C          0.35091        5.04236        0.39342
C         -0.21946        5.30578       -0.86477
N         -0.30234        6.64085       -1.33153
N          0.58035        7.61067       -0.99877
C          0.13306        8.67123       -1.69410
C          0.68060        9.96041       -1.82876
C         -0.11390       10.85811       -2.57424
C         -1.37377       10.51048       -3.13311
C         -1.92130        9.21952       -3.04374
C         -1.12490        8.30244       -2.33958
N         -1.32281        6.99324       -2.15831
C         -0.74010        4.25581       -1.65701
O         -1.23339        4.49974       -2.91063
C         -0.70762        2.93545       -1.20095
C         -1.02199        1.67114       -2.03409
C          0.31430        0.91131       -2.23605
C         -2.02160        0.75238       -1.28999
C         -1.61084        1.89512       -3.44248
C         -0.25910        2.74398        0.12472
H          0.78181       -1.21005        0.23320
H          1.43009       -1.74581        1.79695
H          2.31932       -0.53908        0.79406
H         -0.61864        1.93071        2.88926
H          0.61088        2.25178        4.08999
H          0.52267        4.28151        2.96647
H          1.94497        3.52057        2.24588
H          0.78079        5.85194        0.98193
H          1.63466       10.23777       -1.40134
H          0.25083       11.87503       -2.72442
H         -1.93830       11.27631       -3.66633
H         -2.87437        8.94911       -3.47886
H         -1.47893        5.44753       -2.97626
H          0.84203        0.73080       -1.29400
H          0.15250       -0.06416       -2.70709
H          0.99811        1.48467       -2.87425
H         -2.93960        1.29505       -1.03713
H         -2.30162       -0.10900       -1.90806
H         -1.61265        0.33800       -0.36319
H         -2.55658        2.44606       -3.40169
H         -0.91371        2.43133       -4.09619
H         -1.81693        0.93811       -3.93762
H         -0.32204        1.74231        0.51814
