38

O          1.25344       -0.32924       -0.61776
C          2.44842       -0.18052       -0.41334
O          3.29995       -1.23079       -0.40124
C          3.12127        1.13751       -0.09570
C          2.57070        2.32729       -0.89083
C          1.11570        2.74984       -0.62747
C          0.83802        3.16229        0.79341
C          0.73806        4.49822        1.17618
C          0.47955        4.84432        2.51827
C          0.35979        3.88462        3.53996
N          0.11963        4.20558        4.87422
C          0.22854        5.59182        5.38027
C         -1.13548        6.22965        5.66501
Cl        -1.71178        5.86925        7.32064
C         -0.10122        3.15125        5.89590
C         -1.56035        2.67532        5.99421
Cl        -1.95872        1.27596        4.96472
C          0.48820        2.55568        3.11334
C          0.67005        2.19528        1.77604
H          4.22562       -0.99921       -0.20109
H          3.07784        1.30258        0.98456
H          4.18427        1.05108       -0.35094
H          3.22240        3.18840       -0.69378
H          2.66680        2.10135       -1.96032
H          0.88271        3.59122       -1.29384
H          0.41518        1.95989       -0.91924
H          0.83900        5.29017        0.43716
H          0.36851        5.90420        2.72106
H          0.85560        5.60583        6.28133
H          0.77120        6.23424        4.68033
H         -1.05922        7.31900        5.61032
H         -1.90321        5.89730        4.96015
H          0.60308        2.31831        5.78914
H          0.15801        3.57479        6.87474
H         -1.75817        2.34186        7.01675
H         -2.27085        3.46544        5.74389
H          0.44817        1.72695        3.80895
H          0.68680        1.13745        1.52456
