27

C          1.20277       -0.19236       -0.03569
C          0.47600       -0.28397        1.30075
N          0.89267        0.74783        2.24756
C          0.47940        2.05821        1.97550
O         -0.20132        2.38126        1.00472
C          0.91623        2.99373        2.94889
C          1.60639        2.63862        4.06661
N          1.88171        3.71319        4.85748
C          1.36753        4.73900        4.20789
N          0.77704        4.34882        3.03521
C          0.14683        5.21230        2.06922
N          1.95157        1.33383        4.31881
C          2.64941        0.99484        5.54672
C          1.61637        0.34333        3.39169
O          1.93047       -0.83689        3.57119
H          0.95951        0.73409       -0.56514
H          0.90833       -1.02619       -0.68112
H          2.28805       -0.22505        0.09987
H         -0.60271       -0.17947        1.13446
H          0.63588       -1.28328        1.71816
H          1.39752        5.77014        4.53720
H          0.68948        5.12786        1.12403
H         -0.89350        4.90132        1.94795
H          0.18422        6.24531        2.42409
H          3.59172        1.54975        5.59111
H          2.02088        1.27254        6.39942
H          2.86829       -0.07405        5.61164
