50

O          1.52789        2.19358       -0.08570
C          1.12617        1.04578       -0.05355
C         -0.28958        0.67560       -0.01610
C         -1.42726        1.45845        0.00122
C         -2.65995        0.79539        0.01772
C         -2.72562       -0.61393        0.01614
C         -1.55997       -1.38444       -0.00221
C         -0.35809       -0.70491       -0.01902
C          1.00884       -1.21067       -0.05110
O          1.30993       -2.38902       -0.03865
N          1.83799       -0.12458       -0.06881
C          3.29251       -0.20284       -0.18566
C          3.96876       -0.85045        1.03864
O          3.77467       -2.27371        1.05434
C          5.49420       -0.61925        1.03830
N          5.81063        0.80510        1.16484
C          6.85301        1.17499        2.02477
C          6.79863        2.45291        2.58925
C          7.80480        2.90955        3.44500
C          8.92520        2.11661        3.70446
N          9.91163        2.56250        4.63400
C          9.41755        2.84995        5.98885
C         10.46160        3.50134        6.88528
O         11.63636        2.69581        6.90455
C         12.19962        2.63471        5.60364
C         11.26867        2.27866        4.43189
O         11.75036        1.88030        3.36938
C          9.02610        0.87264        3.07448
C          7.99937        0.40781        2.24285
H         -1.36514        2.54192       -0.00191
H         -3.58317        1.37269        0.02948
H         -3.69677       -1.10621        0.02711
H         -1.59329       -2.46916       -0.00709
H          3.50522       -0.80166       -1.07873
H          3.66842        0.81192       -0.34963
H          3.53747       -0.44650        1.96276
H          2.84811       -2.47366        0.80484
H          5.90924       -1.20847        1.86649
H          5.94030       -1.02252        0.12018
H          5.99439        1.22689        0.25295
H          5.94495        3.09390        2.38055
H          7.71439        3.90545        3.86777
H          9.12938        1.88300        6.42142
H          8.53187        3.49129        5.94913
H         10.08296        3.56798        7.91025
H         10.71160        4.51404        6.54948
H         12.99448        1.88232        5.63172
H         12.66334        3.60222        5.37611
H          9.88256        0.22627        3.24943
H          8.12020       -0.56702        1.77909
