29

C          0.66270        0.01665       -0.04460
C          0.23477        0.90155        1.11208
O          1.08981        2.05521        1.13842
C          2.07176        2.07684        2.07528
O          2.20418        1.24598        2.96391
C          3.06461        3.19209        1.83977
C          4.44673        2.60542        1.54678
C          4.49697        1.94268        0.17054
C          4.17072        2.94546       -0.94283
C          4.12598        2.23357       -2.29549
C          2.85494        3.68983       -0.69876
C          2.70120        4.15880        0.73599
O          2.21680        5.26321        0.99058
H          0.62458        0.57228       -0.98800
H          0.01699       -0.86170       -0.12698
H          1.69757       -0.31719        0.08340
H         -0.78797        1.25652        0.95252
H          0.24855        0.34405        2.05426
H          3.11139        3.77123        2.77094
H          5.19954        3.40326        1.58727
H          4.72370        1.86979        2.31132
H          3.80048        1.09640        0.13721
H          5.49928        1.52753        0.00988
H          4.98103        3.68616       -0.97211
H          3.96826        2.95104       -3.10730
H          5.06365        1.70308       -2.49031
H          3.31155        1.50076       -2.32997
H          1.99287        3.06383       -0.94935
H          2.81268        4.56947       -1.35254
