24

O          0.99099       -0.61785        0.01985
C          2.13653       -0.19333        0.05629
O          2.64198        0.40962        1.15901
C          3.11624       -0.23553       -1.11578
N          2.91658       -1.41738       -1.94430
C          2.14228       -1.53187       -3.07098
O          1.72691       -2.63336       -3.41797
C          1.82102       -0.34740       -3.89594
C          0.50754       -0.19603       -4.35964
C          0.17577        0.87529       -5.19378
C          1.17048        1.78810       -5.56988
N          0.83062        2.91490       -6.44844
O         -0.30810        2.94477       -6.93500
O          1.70441        3.77137       -6.64619
C          2.49240        1.62933       -5.12575
C          2.81782        0.55079       -4.29735
H          3.56768        0.70985        1.08755
H          3.00375        0.69076       -1.67953
H          4.13717       -0.31187       -0.73024
H          2.95809       -2.30999       -1.46191
H         -0.25524       -0.92094       -4.07717
H         -0.84981        0.97587       -5.54441
H          3.27565        2.32137       -5.42988
H          3.85011        0.40163       -3.98997
