22

Cl        -2.74921        0.27375        0.07297
C         -1.20315       -0.50244        0.03174
C         -1.17977       -1.87939        0.26191
C          0.02988       -2.57277        0.25154
C          1.24122       -1.90516       -0.00053
C          2.50259       -2.68633        0.00215
C          3.33882       -2.71340        1.14707
Cl         2.86080       -1.85588        2.58601
C          4.54265       -3.43664        1.13382
Cl         5.61150       -3.49416        2.49252
C          4.92108       -4.15159       -0.00130
C          4.10683       -4.14944       -1.13269
Cl         4.64251       -5.07955       -2.48917
C          2.90673       -3.41961       -1.14140
Cl         1.90827       -3.41367       -2.56836
C          1.20728       -0.51089       -0.24573
Cl         2.70084        0.31967       -0.59014
C         -0.01255        0.19388       -0.22134
Cl        -0.05025        1.90960       -0.49816
H         -2.10452       -2.42106        0.45180
H          0.01983       -3.64657        0.43650
H          5.85292       -4.71428       -0.00338
