18

C          1.09415        0.29728       -0.19527
S          0.51347       -0.48530       -1.71693
C          0.98456        0.77269       -2.87328
N          1.60709        0.36555       -3.98511
C          1.92028        1.33333       -4.86996
C          1.64121        2.66845       -4.70676
N          1.97042        3.60521       -5.63614
C          1.62251        4.87029       -5.33419
C          0.98146        5.17839       -4.15443
N          0.66522        4.23777       -3.23357
C          0.98825        2.96646       -3.49983
N          0.66902        2.04209       -2.59615
H          0.90058       -0.37418        0.64591
H          0.57110        1.23883       -0.00807
H          2.17089        0.48160       -0.24772
H          2.42659        0.99020       -5.76766
H          1.87237        5.62905       -6.06708
H          0.69818        6.19605       -3.90872
