26

C          0.95891       -0.14995       -0.20900
C          0.58682       -1.07394        0.94125
C          1.00656       -0.53958        2.31377
C          0.39962        0.81261        2.70249
C         -1.12944        0.83406        2.80025
C         -1.72939       -0.03582        3.91234
C         -1.26759        0.30114        5.32839
C         -1.77706        1.63293        5.80336
O         -2.75335        1.81982        6.51048
O         -1.04414        2.66951        5.35802
H          0.41994        0.80037       -0.15336
H          0.70343       -0.61708       -1.16537
H          2.03313        0.06063       -0.21093
H         -0.49056       -1.26955        0.91997
H          1.07872       -2.04117        0.78213
H          0.75753       -1.28802        3.07501
H          2.09956       -0.44267        2.33188
H          0.83758        1.13030        3.65521
H          0.71213        1.57251        1.97698
H         -1.45385        1.87165        2.93953
H         -1.56428        0.52374        1.84312
H         -2.82194        0.05672        3.86244
H         -1.50212       -1.08883        3.70964
H         -1.65954       -0.45359        6.02173
H         -0.17957        0.26477        5.43857
H         -1.50421        3.45831        5.71390
