14

O          0.94145        0.13349        0.08782
C          0.26489        0.78200       -0.91690
C         -0.91513        1.43118       -0.56228
O         -1.31443        1.37760        0.74813
C         -1.66623        2.11623       -1.52075
Cl        -3.12847        2.90980       -1.03051
C         -1.21971        2.14548       -2.85487
Cl        -2.14441        2.99529       -4.06108
C         -0.02317        1.48627       -3.21357
Cl         0.54152        1.51289       -4.85933
C          0.71890        0.80289       -2.23608
Cl         2.19606       -0.02921       -2.59738
H          1.74158       -0.26976       -0.30538
H         -0.63724        0.84968        1.21805
