30

C          1.09579       -0.01731        0.21354
C          0.56228        1.04269       -0.73722
C          0.97625        0.80461       -2.19003
C          0.42165       -0.47947       -2.79999
C          0.55510       -0.26740       -4.30467
C          0.51820        1.25542       -4.52878
C         -0.62358        1.67861       -5.46492
C         -0.75345        3.18675       -5.66793
C          0.35669        3.75111       -6.50682
O          0.32605        3.93624       -7.71196
O          1.46053        4.04059       -5.79431
C          0.41580        1.87264       -3.12777
H          0.69260       -1.00628       -0.02418
H          0.80663        0.22182        1.24199
H          2.18813       -0.06871        0.17128
H         -0.53103        1.07513       -0.65490
H          0.93119        2.02409       -0.41505
H          2.07218        0.79864       -2.26410
H          0.96439       -1.37035       -2.46947
H         -0.63532       -0.61020       -2.53762
H         -0.22427       -0.80766       -4.85182
H          1.52083       -0.65951       -4.64701
H          1.47532        1.54655       -4.97928
H         -0.48553        1.18952       -6.43763
H         -1.57311        1.30555       -5.05952
H         -1.69174        3.40114       -6.19448
H         -0.81140        3.73518       -4.72204
H          2.09679        4.36896       -6.46345
H         -0.62872        2.09311       -2.87463
H          0.98022        2.80851       -3.05619
