29

C          1.26950       -0.65199        0.34028
C          0.53888       -0.10270        1.55713
C          0.98578        1.30279        1.95735
O          0.37773        2.32055        1.14341
C          1.10364        2.73020        0.08124
O          2.14936        2.27653       -0.34718
C          0.43366        3.87409       -0.54434
C         -0.17284        3.70435       -1.79719
C         -0.33112        2.38722       -2.43935
O         -0.21731        2.15510       -3.62683
O         -0.79478        1.47846       -1.56915
C         -0.67975        4.81070       -2.49775
C         -0.61061        6.08735       -1.94287
C         -0.03641        6.26471       -0.68487
C          0.49107        5.15959        0.00966
N          1.10331        5.41282        1.31242
O          0.61792        6.32961        1.99036
O          2.07878        4.73273        1.64708
H          1.03306       -0.08808       -0.56390
H          0.97671       -1.69196        0.16303
H          2.35394       -0.62807        0.48794
H         -0.53892       -0.11408        1.36052
H          0.73230       -0.78128        2.39631
H          0.64209        1.49827        2.97927
H          2.07825        1.39712        1.97286
H         -0.91011        0.66085       -2.09937
H         -1.13467        4.67412       -3.47882
H         -1.00461        6.94147       -2.49093
H          0.01238        7.26874       -0.26375
