21

C          1.16752       -0.04539        0.02097
C          0.58732       -1.04549        1.02138
C          1.02672       -0.67102        2.43977
C         -0.94890       -1.11676        0.95508
C         -1.54088       -1.53334       -0.39769
C         -1.10655       -2.91949       -0.85402
O         -2.96587       -1.52166       -0.28775
H          0.74220        0.95341        0.16618
H          0.97147       -0.35374       -1.01032
H          2.25437        0.03103        0.13463
H          1.00427       -2.03524        0.80123
H          0.65172        0.31788        2.72490
H          0.65302       -1.39890        3.16774
H          2.11909       -0.65431        2.51711
H         -1.31046       -1.81162        1.72568
H         -1.37440       -0.14247        1.23268
H         -1.28468       -0.79917       -1.16759
H         -1.34779       -3.67471       -0.09794
H         -1.64366       -3.20552       -1.76504
H         -0.03404       -2.96171       -1.06225
H         -3.21924       -2.18202        0.37988
