34

C          1.00213        0.32398       -0.15806
C          0.71893       -1.16079       -0.23346
O          1.09458       -1.78818        1.00076
C          2.31801       -2.37339        1.04363
O          3.14760       -2.28403        0.14654
C          2.52962       -3.20258        2.31029
C          2.20080       -2.54180        3.66132
C          0.74634       -2.47230        4.05693
C          0.00430       -1.30421        3.83952
C         -1.36827       -1.28409        4.08664
C         -2.00835       -2.42535        4.56678
C         -1.27102       -3.57670        4.83598
C          0.10331       -3.59516        4.59832
N          2.09466       -4.60361        2.20681
C          0.96941       -5.05560        1.81572
C         -0.26324       -4.36025        1.32707
O          0.83856       -6.40036        1.80457
H          0.53628        0.75963        0.73184
H          0.61937        0.83602       -1.04528
H          2.07789        0.50893       -0.08121
H         -0.35660       -1.32641       -0.35777
H          1.21340       -1.62196       -1.09601
H          3.62883       -3.27371        2.33867
H          2.73112       -3.08655        4.45568
H          2.62229       -1.52767        3.67779
H          0.48523       -0.41287        3.44270
H         -1.93995       -0.38182        3.88723
H         -3.08213       -2.41629        4.73201
H         -1.76703       -4.46675        5.21349
H          0.66699       -4.50701        4.79121
H         -0.22207       -4.26204        0.24008
H         -1.15406       -4.93792        1.59611
H         -0.39699       -3.38297        1.77766
H         -0.02870       -6.69921        1.49338
