14

O          1.04042        0.08954        0.50178
N          2.19277        0.05115        0.05229
O          2.83706        1.01769       -0.37632
C          2.87506       -1.22005        0.09195
C          3.94406       -1.35833        0.98774
C          4.61568       -2.57783        1.05610
C          4.22072       -3.63730        0.23650
C          3.15601       -3.48156       -0.65847
C          2.47288       -2.26483       -0.73888
Cl         1.19579       -2.12919       -1.89023
H          4.25119       -0.53147        1.62462
H          5.44728       -2.70534        1.74635
H          4.74647       -4.58892        0.29042
H          2.86869       -4.31673       -1.29416
