24

C          0.87999        0.36151        0.49582
C          0.38274        1.43524       -0.45486
C          0.91739        1.35003       -1.88880
C          0.43523        0.19705       -2.80047
C         -1.09570        0.12678       -2.86228
O          0.89264        0.50448       -4.13048
C          0.99919       -1.19968       -2.47041
C          2.52041       -1.28118       -2.41158
H          0.38935       -0.59628        0.31356
H          0.64883        0.64352        1.52860
H          1.96312        0.22989        0.42138
H         -0.71221        1.45446       -0.44949
H          0.69993        2.40439       -0.04803
H          0.63711        2.29428       -2.37927
H          2.01376        1.38323       -1.87447
H         -1.52142        1.09972       -3.13329
H         -1.42151       -0.57672       -3.63750
H         -1.53040       -0.19078       -1.90967
H          0.48326        1.34313       -4.40479
H          0.58067       -1.58247       -1.53630
H          0.67712       -1.89991       -3.25353
H          2.92999       -0.67214       -1.60202
H          2.82988       -2.31585       -2.23040
H          2.97422       -0.95716       -3.35303
