46

C          0.83423       -0.13254        0.03462
C          0.02398        1.12730       -0.10761
O         -0.70623        1.30339       -1.08703
C          0.25689        2.23281        0.88592
C          0.18911        1.87166        2.35890
C          1.05117        2.71204        3.26178
N         -0.62999        0.95409        2.70718
C         -1.08991        0.47902        4.01376
C         -1.61472       -0.95018        3.81716
C         -2.17647       -1.58972        5.08885
C         -1.33919       -1.39800        6.35066
C         -0.82529        0.02113        6.51525
C         -0.20222        0.62918        5.25565
N          1.22321        0.36623        5.14154
C          1.96166       -0.62723        4.84787
C          1.56518       -2.02282        4.46908
C          3.45231       -0.34037        4.83117
C          3.94551        0.05319        3.46052
C          4.86343        1.24250        3.36387
O          3.60712       -0.55682        2.44465
H          0.62949       -0.79096       -0.81458
H          0.56835       -0.65891        0.95218
H          1.89767        0.11897        0.03339
H          1.23183        2.67522        0.65596
H         -0.50407        3.00666        0.72204
H          0.49144        3.09416        4.11257
H          1.91189        2.12702        3.58381
H          1.44598        3.57394        2.71538
H         -1.99024        1.07469        4.22926
H         -2.41379       -0.93826        3.06294
H         -0.84041       -1.58017        3.37223
H         -2.32376       -2.66301        4.91698
H         -3.17323       -1.17002        5.27190
H         -0.50262       -2.09929        6.38061
H         -1.95133       -1.65897        7.22329
H         -0.12586        0.07144        7.35811
H         -1.68542        0.64534        6.79836
H         -0.22815        1.70353        5.47881
H          1.73273       -2.17537        3.40067
H          2.18629       -2.73236        5.02492
H          0.53782       -2.25499        4.69658
H          3.65386        0.46996        5.54111
H          4.01247       -1.21855        5.16606
H          5.69747        1.00023        2.70054
H          4.30619        2.09501        2.96821
H          5.27011        1.50223        4.34409
