55

C          0.93474       -0.14894       -0.15902
C          0.53113       -0.73975        1.18337
C          0.98937        0.09823        2.37996
C          0.43942        1.52878        2.43164
C         -1.08796        1.65019        2.48611
C         -1.75823        0.94702        3.67293
C         -1.31703        1.45646        5.05571
O         -1.74062        2.81106        5.22096
C         -1.91388        0.62643        6.20813
C         -1.37412       -0.77677        6.21894
C         -0.55887       -1.25643        7.16811
C          0.10281       -2.60221        7.08055
C          1.63251       -2.49165        7.14801
C          2.18586       -1.92427        8.46327
C          1.73922       -2.67686        9.72018
C          2.23487       -4.12409        9.79667
C          3.75381       -4.27790        9.94608
C          4.36089       -3.58179       11.16239
C          3.95054       -4.22374       12.45744
O          4.61243       -5.01449       13.10949
O          2.72280       -3.85580       12.86607
H          0.43755        0.80789       -0.34280
H          0.65308       -0.82849       -0.96969
H          2.01701        0.00753       -0.20925
H         -0.55439       -0.88310        1.20937
H          0.97690       -1.73825        1.27040
H          0.72517       -0.43213        3.30253
H          2.08547        0.15286        2.37031
H          0.87661        2.03611        3.29936
H          0.79952        2.08726        1.55978
H         -1.35447        2.71337        2.49474
H         -1.51592        1.24570        1.56102
H         -2.84153        1.09464        3.57478
H         -1.58134       -0.12830        3.57801
H         -0.22535        1.43999        5.14937
H         -1.22092        3.35698        4.60708
H         -1.69406        1.13234        7.15812
H         -3.00759        0.60320        6.13589
H         -1.63439       -1.41115        5.37535
H         -0.31992       -0.63518        8.02846
H         -0.27980       -3.25082        7.87473
H         -0.16069       -3.09320        6.13514
H          2.06554       -3.48221        6.96701
H          1.98430       -1.85611        6.32437
H          3.28028       -1.90709        8.40661
H          1.88564       -0.87439        8.56220
H          2.07021       -2.11732       10.60126
H          0.64550       -2.67671        9.78453
H          1.73489       -4.62148       10.63524
H          1.91415       -4.67467        8.90466
H          3.98447       -5.34960        9.99310
H          4.24598       -3.89930        9.04265
H          5.45425       -3.64823       11.10458
H          4.13464       -2.51170       11.19676
H          2.57654       -4.37340       13.68529
