43

O          1.45754        0.44506       -0.52077
C          2.53821        0.50876        0.05211
N          3.58603        1.15917       -0.55788
C          4.65155        0.43100       -1.04805
O          4.90407        0.38649       -2.24649
C          5.51031       -0.27914       -0.09703
C          5.62162       -1.66326       -0.15669
F          4.91967       -2.37077       -1.05168
C          6.43051       -2.34440        0.75149
C          7.14635       -1.63269        1.71695
C          7.04573       -0.24150        1.77130
C          6.22795        0.42736        0.86314
F          6.12456        1.76066        0.94920
N          2.83771       -0.00044        1.29371
C          2.03858       -0.83931        2.09655
C          0.80117       -1.34931        1.70449
C          0.04159       -2.16332        2.56458
Cl        -1.51612       -2.62071        1.96549
C          0.53795       -2.51696        3.82792
O         -0.10733       -3.25111        4.80112
C         -0.93752       -4.28441        4.45254
N         -2.22002       -4.10819        4.85956
C         -3.10517       -5.08772        4.57289
C         -2.77104       -6.26313        3.91714
C         -3.82703       -7.29269        3.65945
F         -4.14513       -7.99624        4.77946
F         -4.99311       -6.75205        3.21234
F         -3.46170       -8.21540        2.72794
C         -1.42947       -6.44688        3.55756
C         -0.49130       -5.45001        3.83263
Cl         1.15639       -5.72843        3.41600
C          1.79243       -2.00769        4.20631
Cl         2.48922       -2.38286        5.74805
C          2.53299       -1.17969        3.35492
H          3.17892        1.60708       -1.37432
H          6.49634       -3.42813        0.70047
H          7.78329       -2.16227        2.42280
H          7.60244        0.32488        2.51335
H          3.66805        0.38256        1.72411
H          0.38369       -1.10899        0.72983
H         -4.12471       -4.88666        4.89802
H         -1.11906       -7.36751        3.06614
H          3.49758       -0.80594        3.68992
