64

C          1.06739        0.09141        0.47691
C          0.92832        1.28053       -0.46093
C          1.48668        1.01571       -1.86184
C          0.80946       -0.11998       -2.64058
C         -0.70355        0.02878       -2.84281
C         -1.12185        1.27369       -3.63019
C         -0.81987        1.19797       -5.13241
C         -1.78200        0.32330       -5.95163
C         -3.27960        0.66938       -5.87444
C         -3.67230        1.97627       -6.52454
C         -3.32156        3.19907       -5.95217
C         -3.61307        4.44111       -6.55314
C         -3.01554        5.70493       -5.88348
C         -3.53370        5.82029       -4.42979
C         -1.47027        5.57113       -5.85518
C         -3.30841        7.06081       -6.56104
C         -4.38474        4.40119       -7.73560
O         -4.76569        5.57733       -8.30744
C         -4.80884        3.19428       -8.34004
C         -5.68943        3.07951       -9.61153
C         -4.96033        2.22804      -10.67935
C         -7.01949        2.38262       -9.23324
C         -6.07898        4.39995      -10.31325
C         -4.41169        1.99236       -7.70924
H          0.45553       -0.75341        0.14756
H          0.73897        0.36587        1.48445
H          2.10925       -0.23858        0.53883
H         -0.12256        1.58472       -0.51591
H          1.47118        2.12946       -0.02776
H          1.43145        1.94405       -2.44201
H          2.55578        0.78363       -1.77677
H          1.30248       -0.21118       -3.61519
H          0.99770       -1.06960       -2.12589
H         -1.08266       -0.86947       -3.34369
H         -1.19594        0.05171       -1.86374
H         -2.18996        1.44348       -3.46421
H         -0.62781        2.15945       -3.21703
H         -0.81641        2.21148       -5.54576
H          0.20081        0.83106       -5.28874
H         -1.46252        0.35851       -7.00139
H         -1.65811       -0.71836       -5.63147
H         -3.82713       -0.14472       -6.36851
H         -3.64003        0.65892       -4.84028
H         -2.77779        3.18256       -5.01208
H         -3.22479        4.97641       -3.80373
H         -3.15077        6.72565       -3.94406
H         -4.62868        5.86495       -4.40610
H         -1.06952        5.43893       -6.86750
H         -1.00108        6.46366       -5.42476
H         -1.13196        4.72062       -5.25397
H         -2.95091        7.08461       -7.59625
H         -4.37581        7.30332       -6.54348
H         -2.80033        7.87960       -6.03576
H         -5.46587        5.92557       -7.72933
H         -4.77888        1.20024      -10.34868
H         -5.55071        2.15908      -11.60100
H         -3.99036        2.66926      -10.93698
H         -7.54705        2.94291       -8.45183
H         -7.68873        2.30734      -10.09839
H         -6.86744        1.36383       -8.86083
H         -6.68575        5.04251       -9.66566
H         -5.19688        4.95752      -10.64722
H         -6.68542        4.20695      -11.20724
H         -4.70173        1.03617       -8.14038
