30

C          0.95243       -0.66274       -0.20112
C          1.35966        0.16365        1.81823
O          2.02216        1.15655        2.20861
O          0.91412       -0.58563        3.04847
C          0.24757        0.04100        4.11404
C          0.94329        0.01916        5.32974
C          0.30304        0.40102        6.50444
C         -1.03298        0.78459        6.46448
C         -1.72255        0.79606        5.24637
C         -1.09933        0.42166        4.03788
C         -1.97006        0.52936        2.81278
O         -3.18985        0.64946        2.94437
N         -1.43767        0.78001        1.57614
C         -0.43029        0.05179        1.02228
N          0.31301       -1.39295        1.37190
C          2.20326       -1.45330        1.08588
C          2.77422        0.01325        0.37446
N          4.06029        0.43632       -0.04876
O          4.13221        1.48598       -0.69264
O          4.98796       -0.33218        0.22370
S          1.05465        1.51276        0.03370
H         -0.00181       -0.43391       -0.78237
H          0.89189       -1.79501       -0.37917
H          1.63325       -0.48647       -1.09536
H          1.97434       -0.32314        5.35996
H          0.83746        0.37715        7.45074
H         -1.54631        1.07025        7.37981
H         -2.76794        1.10442        5.25171
H         -2.05842        1.24228        0.92395
H          2.69728       -2.37839        1.36472
