39

C          0.99484       -0.00716       -0.26770
C          0.25897       -0.63955        0.66260
C         -1.23965       -0.63241        0.69729
C         -1.93693       -1.88961        0.20842
O         -3.13134       -2.08663        0.40658
O         -1.12602       -2.70692       -0.51123
C         -1.72352       -3.89109       -1.06565
C         -1.32863       -5.12539       -0.25639
C         -1.91977       -5.18780        1.15458
C         -3.42215       -5.42605        1.16851
C          0.99016       -1.28161        1.78101
O          1.98447       -0.80156        2.30270
O          0.40740       -2.46270        2.08922
C          1.04248       -3.24278        3.11598
C          1.88120       -4.36688        2.50594
C          3.12933       -3.90813        1.74665
C          4.20539       -3.32915        2.65330
H          0.53391        0.52148       -1.09543
H          2.08175       -0.00258       -0.22385
H         -1.57006       -0.45126        1.72745
H         -1.62121        0.19414        0.08509
H         -2.80900       -3.80151       -1.17876
H         -1.31627       -3.99114       -2.07804
H         -1.61981       -6.02603       -0.80973
H         -0.23612       -5.14279       -0.16318
H         -1.43790       -6.01157        1.69506
H         -1.68795       -4.27506        1.71160
H         -3.67431       -6.36211        0.66039
H         -3.78082       -5.49534        2.20063
H         -3.96858       -4.61467        0.68118
H          1.62008       -2.62485        3.81143
H          0.23183       -3.69113        3.70133
H          2.17837       -5.06325        3.29898
H          1.25388       -4.92799        1.80356
H          3.55424       -4.77437        1.22484
H          2.86494       -3.18194        0.97114
H          4.52738       -4.06592        3.39605
H          5.08071       -3.04252        2.06150
H          3.85834       -2.43969        3.18484
