35

C          1.65676       -1.01247       -0.57224
C          0.48061       -1.48301       -1.43878
C          0.49384       -2.96006       -1.88750
Cl         1.68102       -4.02300       -1.08824
O         -0.83512       -1.07720       -0.98943
P         -1.41179       -1.40205        0.60896
O         -0.32798       -2.44310        0.85295
O         -0.92859        0.11513        1.01768
C         -1.40899        1.31181        0.37520
C         -0.23391        1.97377       -0.35064
C         -2.60988        1.19684       -0.58242
Cl        -4.15033        1.28612        0.30322
O         -1.98845       -1.72691        2.20734
C         -1.46352       -1.21708        3.42994
C          0.05029       -1.32486        3.56372
C         -1.96583        0.18650        3.78850
Cl        -3.74469        0.29136        3.73117
H          1.72194       -1.51451        0.39589
H          1.58933        0.05162       -0.34907
H          2.60774       -1.17780       -1.08956
H          0.58738       -0.90737       -2.36783
H         -0.49284       -3.42035       -1.78012
H          0.75461       -3.00018       -2.95037
H         -1.67256        1.99935        1.18373
H          0.05298        1.41610       -1.24549
H         -0.48807        2.99119       -0.66791
H          0.64343        2.03133        0.30282
H         -2.61960        2.02892       -1.29631
H         -2.65020        0.27361       -1.15215
H         -1.87652       -1.88722        4.19596
H          0.57709       -0.72658        2.81564
H          0.37639       -0.98637        4.55293
H          0.37134       -2.36348        3.43855
H         -1.66903        0.45114        4.80773
H         -1.57348        0.96249        3.13318
