18

O          2.32552        0.32041       -0.24303
C          1.17247        0.09215        0.11006
C          0.30379        1.16597        0.71004
C         -0.85052        1.54556       -0.20573
C         -2.05101        0.61338       -0.07548
C         -1.75845       -0.83975       -0.44006
C         -0.68455       -1.46931        0.43559
O          0.63444       -1.13947       -0.03061
H         -0.01877        0.88248        1.71653
H          0.94443        2.04789        0.84080
H         -1.18218        2.55882        0.05225
H         -0.51839        1.57642       -1.25061
H         -2.43932        0.66028        0.94966
H         -2.85265        0.98219       -0.72699
H         -2.68838       -1.40858       -0.32317
H         -1.46545       -0.89814       -1.49503
H         -0.79422       -1.22197        1.49701
H         -0.76178       -2.55941        0.35886
