27

O          0.97251        0.40372        0.10381
N          2.13377        0.01868       -0.08605
O          2.57214       -1.09111        0.26661
C          3.06053        0.94595       -0.74396
C          2.80389        2.32165       -0.57374
C          3.64631        3.24045       -1.17577
O          3.43981        4.58169       -1.06567
C          4.72876        2.81142       -1.92672
C          4.97501        1.44114       -2.09164
C          4.16236        0.46185       -1.49643
N          4.33162       -0.89876       -1.77357
C          5.58890       -1.49446       -2.22290
C          6.49007       -1.87429       -1.04778
C          5.99046       -3.07977       -0.25777
O          5.91661       -4.23011       -1.09009
H          1.95533        2.65859        0.01497
H          2.61281        4.74444       -0.58138
H          5.37640        3.54020       -2.40871
H          5.81287        1.17172       -2.72698
H          3.82915       -1.49921       -1.11293
H          5.34448       -2.38638       -2.81047
H          6.13230       -0.84239       -2.91207
H          7.47828       -2.12163       -1.45539
H          6.61845       -1.02252       -0.37035
H          6.69485       -3.30580        0.54900
H          5.01206       -2.90118        0.19875
H          5.00521       -4.29378       -1.42603
