27

C          0.95823        0.08761        0.02407
C         -0.34562        0.08761        0.02407
C         -1.86562        0.08761        0.02407
C         -2.35626       -0.36501       -1.35535
C         -2.35904       -0.88130        1.10590
N         -2.41051        1.43048        0.32932
C         -1.96092        2.69913        0.05812
O         -2.74749        3.64225        0.02242
C         -0.52734        2.98971       -0.07757
C          0.06537        3.03587       -1.34134
C          1.43840        3.26374       -1.43225
Cl         2.20465        3.23986       -2.97310
C          2.20802        3.47546       -0.28679
C          1.59158        3.46703        0.96407
Cl         2.53884        3.71221        2.37983
C          0.22308        3.23202        1.07982
H          2.02419        0.07802        0.02663
H         -1.99719       -1.37300       -1.59528
H         -3.45138       -0.37915       -1.39998
H         -2.00447        0.30790       -2.14605
H         -2.02310       -0.56232        2.10069
H         -3.45420       -0.92233        1.13253
H         -1.98445       -1.89784        0.94151
H         -3.41797        1.44940        0.42963
H         -0.52959        2.86016       -2.23238
H          3.28035        3.63540       -0.36757
H         -0.25525        3.21304        2.05550
