27

C          1.18277       -0.17593       -0.06338
C          0.36418       -0.38391       -1.10290
C         -1.11416       -0.14613       -1.06194
O         -1.47247        0.78949       -2.08376
C         -1.33271        2.10144       -1.77053
O         -0.97635        2.53517       -0.68079
C         -1.77388        2.99301       -2.90872
C         -1.23437        2.62153       -4.29198
C         -1.82639        1.37135       -4.95910
C         -3.35322        1.28489       -4.98804
C         -3.99692        2.36898       -5.83696
H          0.80762        0.19149        0.88793
H          2.25083       -0.34702       -0.14898
H          0.77755       -0.73405       -2.04518
H         -1.62818       -1.08521       -1.29468
H         -1.47597        0.18020       -0.08000
H         -2.86501        3.06394       -2.89416
H         -1.39356        3.99591       -2.67294
H         -1.40385        3.47619       -4.95901
H         -0.14601        2.49400       -4.23266
H         -1.44799        1.32229       -5.98831
H         -1.43609        0.47336       -4.46846
H         -3.63662        0.30877       -5.40005
H         -3.76301        1.31595       -3.97303
H         -3.64002        2.31618       -6.87053
H         -5.08399        2.24035       -5.84910
H         -3.78207        3.36802       -5.44733
