22

C          1.25850        0.11993        0.03340
N          0.60911        0.73113        1.16864
C         -0.41675        1.73378        1.00764
C          0.94811        0.31222        2.43323
N          2.15246       -0.24124        2.61903
C          2.45853       -0.63804        3.87088
C          1.60722       -0.57266        4.94185
N          1.94145       -1.04062        6.17676
C          0.97391       -0.95511        7.10817
C         -0.26067       -0.41886        6.81672
N         -0.56891        0.06853        5.59201
C          0.36634       -0.00430        4.63444
N          0.06138        0.46165        3.42325
H          0.85264        0.49396       -0.91275
H          1.10286       -0.96578        0.03871
H          2.33472        0.32169        0.02915
H         -1.37109        1.41726        1.44134
H         -0.10694        2.67253        1.48194
H         -0.59859        1.95628       -0.04953
H          3.45657       -1.04672        3.99244
H          1.21640       -1.33605        8.09371
H         -1.04887       -0.36511        7.55947
