71

C          1.11365        0.18218        0.35153
C          0.83634        1.33530       -0.60061
C          1.29423        1.05755       -2.03591
C          0.62346       -0.14287       -2.71513
C         -0.90467       -0.07565       -2.76202
C         -1.45128        1.07100       -3.61406
C         -1.20436        0.94412       -5.12618
C         -1.53507       -0.40729       -5.77249
C         -2.99998       -0.77767       -5.84365
O         -3.44337       -1.59423       -6.64193
O         -3.73623       -0.11662       -4.92009
C         -5.15793       -0.30784       -4.92393
C         -5.86961        0.89398       -5.58987
C         -5.39125        1.07168       -7.04060
C         -7.37962        0.60267       -5.59368
C         -5.56912        2.20727       -4.82874
O         -6.02537        2.12238       -3.47137
C         -7.18742        2.73654       -3.14815
O         -7.84992        3.43131       -3.90908
C         -7.58163        2.48407       -1.70973
C         -6.98515        1.23478       -1.04878
C         -5.47221        1.24732       -0.77593
C         -4.93773        2.51303       -0.10372
C         -5.40796        2.69676        1.34093
C         -4.90498        1.62561        2.31660
C         -3.38285        1.46506        2.38178
C         -2.66499        2.72778        2.83274
H          0.55632       -0.71659        0.07157
H          0.81373        0.45300        1.36867
H          2.18030       -0.06295        0.36538
H         -0.23093        1.58159       -0.57714
H          1.36144        2.22537       -0.23448
H          1.12713        1.95896       -2.63701
H          2.37886        0.89358       -2.03760
H          1.02106       -0.23784       -3.73254
H          0.91690       -1.06277       -2.19623
H         -1.29446       -1.03298       -3.12498
H         -1.30395        0.02043       -1.74631
H         -2.52380        1.16100       -3.41570
H         -1.03421        2.02637       -3.27552
H         -1.77253        1.73438       -5.63352
H         -0.14633        1.15926       -5.32122
H         -1.18625       -0.35984       -6.81229
H         -0.99421       -1.22583       -5.28949
H         -5.43395       -1.25319       -5.40608
H         -5.46215       -0.40235       -3.87443
H         -5.52477        0.14913       -7.61538
H         -5.95433        1.86440       -7.54500
H         -4.33235        1.34908       -7.08576
H         -7.75467        0.40058       -4.58434
H         -7.94312        1.44845       -6.00163
H         -7.60784       -0.27720       -6.20494
H         -4.48818        2.38733       -4.78314
H         -5.99972        3.07481       -5.34286
H         -7.36802        3.38570       -1.12899
H         -8.67178        2.35498       -1.71513
H         -7.50536        1.07887       -0.09545
H         -7.21462        0.35667       -1.66603
H         -5.22288        0.36535       -0.17490
H         -4.92166        1.09984       -1.71021
H         -3.84287        2.49356       -0.13873
H         -5.21926        3.39643       -0.68725
H         -5.08558        3.68449        1.69029
H         -6.50378        2.71484        1.37391
H         -5.28015        1.86771        3.31857
H         -5.34810        0.65700        2.05734
H         -3.14839        0.65864        3.08657
H         -2.98696        1.14484        1.41173
H         -3.02551        3.05067        3.81447
H         -1.58908        2.54243        2.90969
H         -2.80835        3.54938        2.12479
