29

C          1.50087        0.14620       -0.40798
C          0.85414       -1.18232       -0.77040
C          1.22333       -2.32214        0.18577
C          0.64200       -2.19907        1.60330
N         -0.81886       -2.28879        1.61482
C         -1.48798       -3.50400        1.64226
O         -0.78666       -4.68335        1.70519
C         -2.82259       -3.55889        1.62005
C         -3.62251       -2.35928        1.51519
C         -5.11104       -2.57980        1.46961
C         -3.00440       -1.16205        1.46730
C         -3.81637        0.11834        1.35903
N         -4.48996        1.18052        1.26921
C         -1.52661       -1.07234        1.58994
O         -0.99098        0.03400        1.65114
H          1.26807        0.45917        0.61220
H          1.14742        0.93150       -1.08377
H          2.58930        0.08393       -0.49959
H         -0.23305       -1.06433       -0.82758
H          1.18085       -1.45602       -1.78075
H          0.88172       -3.26208       -0.26486
H          2.31524       -2.38947        0.25736
H          1.05485       -2.98309        2.24929
H          0.96313       -1.25846        2.06275
H          0.11679       -4.53268        1.39801
H         -3.32390       -4.52290        1.65554
H         -5.37967       -3.21141        0.61588
H         -5.44907       -3.07642        2.38626
H         -5.68401       -1.65276        1.37768
