32

N          0.75473       -0.13422       -0.08635
C          0.23442        0.71412        0.70796
O          0.96417        1.74038        1.14504
N         -1.07075        0.72646        1.15080
C         -2.07006        0.03814        0.22772
C         -2.92788       -1.15460        0.69425
N         -4.21191       -0.72762        1.31767
O         -5.15095       -1.53354        1.40258
O         -4.31754        0.46203        1.66299
N         -3.36464       -1.89222       -0.53099
O         -3.18585       -3.11455       -0.62167
O         -3.86732       -1.20653       -1.43936
N         -2.23562       -2.12275        1.56941
O         -1.01671       -2.27436        1.40470
O         -2.88306       -2.75523        2.41737
C         -1.54797        1.91483        1.94349
C         -1.27162        1.97799        3.45663
N          0.14323        2.25808        3.79454
O          0.49802        3.43410        3.96692
O          0.93726        1.30342        3.83829
N         -2.10368        3.09436        4.01279
O         -2.76427        2.92281        5.04628
O         -2.16213        4.14137        3.34508
N         -1.67045        0.75211        4.18962
O         -2.39581       -0.05736        3.59142
O         -1.29172        0.58763        5.35983
H          1.73982        0.05390       -0.27811
H          1.88661        1.67865        0.84805
H         -2.70053        0.83033       -0.20272
H         -1.50486       -0.30701       -0.65015
H         -1.15476        2.81634        1.44957
H         -2.62544        2.00607        1.78132
