28

C          1.04353       -0.02931       -0.20930
O          0.48534       -1.16977        0.43058
N          0.77889       -2.30114       -0.33139
C          0.38339       -3.41838        0.21752
C         -0.38577       -3.56958        1.54696
O         -0.42316       -4.64482        2.13279
O         -1.00852       -2.44924        1.94655
C         -1.65650       -2.53498        3.21607
C          0.73199       -4.68859       -0.48960
C         -0.30467       -5.60341       -0.74156
C         -0.04642       -6.80034       -1.40943
C          1.24202       -7.08640       -1.84573
C          2.27436       -6.17715       -1.61343
C          2.04692       -4.96877       -0.92195
C          3.21968       -4.04830       -0.68755
Cl         4.48307       -4.84876        0.28647
H          0.76559        0.85884        0.36421
H          0.65284        0.07062       -1.22665
H          2.13468       -0.10884       -0.22953
H         -2.63326       -3.01052        3.09433
H         -1.05143       -3.07911        3.94954
H         -1.80502       -1.51841        3.59171
H         -1.32269       -5.39627       -0.41936
H         -0.85070       -7.50979       -1.58794
H          1.44838       -8.02041       -2.36316
H          3.27578       -6.42672       -1.96332
H          3.66062       -3.75627       -1.64664
H          2.97453       -3.13837       -0.14386
