21

N          2.30775        0.00863       -0.17916
C          0.92039        0.01454       -0.00446
C          0.20267       -1.18532       -0.04616
C         -1.19984       -1.19072       -0.00249
C         -1.89477       -2.49990       -0.01470
O         -1.35872       -3.59209       -0.02552
O         -3.23291       -2.37519       -0.01145
C         -1.89742        0.01823        0.04146
C         -1.17945        1.21589        0.02059
S         -2.08200        2.73371        0.04109
O         -2.78216        2.84973       -1.21841
O         -2.77611        2.81493        1.30641
O         -0.97812        3.91086        0.05358
C          0.21772        1.22045       -0.02274
H          2.76519       -0.84494        0.12946
H          2.78074        0.83989        0.16291
H          0.73746       -2.13146       -0.11206
H         -3.55915       -3.29973       -0.02493
H         -2.98481        0.03473        0.07384
H         -1.45253        4.76618       -0.00635
H          0.76264        2.15980       -0.07134
