16

N          0.88025        0.07081       -0.25245
C          0.25242        0.89802        0.69441
C          0.65836        2.23739        0.78294
C         -0.04277        3.14820        1.57401
C         -1.19187        2.73552        2.23817
Cl        -2.08721        3.86629        3.17772
C         -1.63801        1.41974        2.12802
C         -0.90612        0.47954        1.39025
N         -1.45608       -0.80354        1.19482
H          0.71165       -0.91734       -0.13182
H          1.85314        0.29476       -0.42833
H          1.51709        2.58553        0.21479
H          0.29232        4.17949        1.63630
H         -2.56358        1.12647        2.61467
H         -2.09059       -1.09249        1.93206
H         -0.76577       -1.51274        0.98914
