25

O          1.33688       -0.08971        0.53330
C          2.49205       -0.15294        0.12878
N          3.27492       -1.24099        0.45079
C          4.65577       -1.12485        0.93045
C          4.71016       -0.65750        2.38713
O          3.98283       -1.55790        3.21943
C          3.05103        0.90973       -0.73965
C          2.65594        2.23044       -0.48672
C          3.14104        3.25460       -1.29452
O          2.78396        4.55354       -1.08590
C          4.00594        2.98519       -2.35021
C          4.37793        1.66878       -2.62207
C          3.89104        0.63249       -1.82781
O          4.26384       -0.63249       -2.19357
H          2.73546       -1.92793        0.96940
H          5.08857       -2.12631        0.84114
H          5.22638       -0.43343        0.30711
H          5.74751       -0.63960        2.73454
H          4.28922        0.34605        2.50775
H          3.04392       -1.30370        3.16130
H          1.97405        2.44074        0.33243
H          2.10611        4.58856       -0.39028
H          4.37515        3.79631       -2.97228
H          5.03338        1.45077       -3.46115
H          3.81694       -1.27158       -1.60552
