12

N          1.04166        0.07075        0.28681
C          0.29788        0.70091        1.23733
O         -0.92660        0.65756        1.17194
N          1.07028        1.33033        2.18672
N          0.36686        1.90337        3.05109
C          1.07235        2.55705        4.03708
N          2.43727        2.51917        3.97994
O          0.54445        3.16946        4.96082
H          0.55092       -0.41668       -0.44842
H          2.04788        0.08684        0.31107
H          2.95776        2.99650        4.69994
H          2.90010        2.02538        3.23513
