121

C         -0.29884       -1.83867       -0.03398
C         -0.57432       -1.62083        1.42405
O         -1.68382       -1.38443        1.88034
O          0.56283       -1.77868        2.15533
C          0.42977       -1.89522        3.58733
C          0.85306       -0.62067        4.34211
O          2.20761       -0.15957        3.89601
C          2.50559        1.19113        4.35583
O          3.83965        1.81508        4.33873
C          4.18959        2.43860        3.11592
C          5.74760        2.50616        2.89078
O          6.34507        3.75111        3.28870
C          6.47840        4.70262        2.31766
O          6.26598        4.51459        1.12553
C          6.75263        6.07372        2.90234
C          6.42044        6.14701        4.39202
C          8.19022        6.45812        2.60713
O          3.78275        1.38530        2.24561
C          3.33935        1.93562        1.03622
C          2.38009        0.60955        0.12497
O          1.08234        0.78057       -1.03884
C          0.14722        1.53689       -1.79642
C         -0.21005        3.05425       -1.62927
O         -0.53155        0.95814       -2.65243
C          2.89713        3.76371        1.43652
O          1.37811        4.55974        1.12065
C          0.08867        4.51240        1.71384
O         -0.08495        3.92028        2.77807
C         -1.24599        5.13423        1.10876
C         -1.16160        6.58236        0.70231
C         -2.31283        4.41141        0.24619
C          3.50822        3.93330        2.83034
O          2.73106        4.51692        3.92313
C          1.91445        5.61167        3.79030
O          2.03264        6.45448        2.91319
C          0.78296        5.57380        4.85216
C          1.31506        5.99480        6.20091
C         -0.48970        6.35820        4.50586
C          1.39849        2.07302        3.77958
O          1.52296        2.21172        2.08660
C          1.09339        2.39948        0.66191
O         -0.09109        2.17288        0.57802
C          2.40139        2.91668       -0.84136
C          2.33396        3.94074       -2.08282
C          4.12086        2.79971       -1.08500
C          0.14222        1.80494        4.59713
O          0.28126        2.13318        6.10966
C          0.87353        1.47402        7.16072
O          1.51905        0.43477        7.07386
C          0.68362        2.10716        8.54634
C          1.37267        3.44794        8.74864
C         -0.77509        2.16101        8.97013
C         -0.27557        0.43062        4.17840
O         -1.62638        0.17886        4.60742
C         -1.94398        0.18754        5.91796
O         -1.20297       -0.18455        6.81319
C         -3.35769        0.67716        6.15703
C         -3.65878        2.04208        5.53547
C         -4.30529       -0.39811        5.65619
H         -0.59979       -0.95766       -0.59968
H         -0.86010       -2.70850       -0.38060
H          0.76528       -2.02694       -0.20751
H         -0.59261       -2.18213        3.86632
H          1.08038       -2.72320        3.88020
H          0.94234       -0.91865        5.38724
H          2.45664        1.10646        5.42018
H          6.24646        1.70575        3.44675
H          5.99916        2.30817        1.83944
H          6.07756        6.77484        2.39205
H          6.99789        5.41899        4.97170
H          6.62297        7.14223        4.79556
H          5.35799        5.92925        4.55718
H          8.35016        6.53375        1.52529
H          8.43708        7.42636        3.05217
H          8.88637        5.70573        2.99076
H          4.33941        1.86861        0.64712
H          3.09300        0.03649       -0.47622
H          1.92520       -0.06174        0.85725
H         -0.48143        3.55949       -2.56242
H         -1.08974        3.09079       -1.03177
H          0.42171        3.76944       -1.09757
H          3.48721        4.37921        0.75423
H         -1.85171        5.17395        2.03167
H         -0.67114        6.68625       -0.26540
H         -2.17425        7.00358        0.62206
H         -0.62435        7.15511        1.45831
H         -2.35036        3.32612        0.39052
H         -3.33269        4.74832        0.49321
H         -2.22011        4.66752       -0.81807
H          4.27563        4.68211        2.71959
H          0.44831        4.54075        4.96491
H          1.78216        6.97902        6.15221
H          0.50534        6.02308        6.93815
H          2.05956        5.27082        6.54321
H         -1.13118        5.79434        3.82877
H         -1.11812        6.51668        5.39018
H         -0.28434        7.32169        4.03702
H          1.62888        3.04014        4.12049
H          2.32110        2.06089       -1.49390
H          2.87160        4.86732       -1.87413
H          2.87599        3.45571       -2.93052
H          1.43258        4.16229       -2.63617
H          4.45308        1.74864       -1.14987
H          4.48877        3.16783       -2.05163
H          4.72026        3.38799       -0.38703
H         -0.66475        2.48796        4.33569
H          1.18195        1.41801        9.24820
H          0.78129        4.25912        8.32289
H          1.48062        3.66348        9.82091
H          2.37388        3.46609        8.30835
H         -1.20919        1.15715        8.98489
H         -0.87461        2.57131        9.98179
H         -1.36337        2.77927        8.28711
H         -0.39841        0.53911        3.09372
H         -3.47518        0.78402        7.24344
H         -3.54506        2.03630        4.44625
H         -4.68865        2.34636        5.75962
H         -2.99289        2.81750        5.93138
H         -3.99313       -1.38128        6.02494
H         -5.32631       -0.20869        5.99636
H         -4.30478       -0.44088        4.56163
