8

C          0.92578       -0.05893        0.05951
C          0.26546        1.07812       -0.18430
C         -1.21025        1.10960       -0.19104
O         -1.82332        2.14593       -0.41326
H          0.41903       -0.99759        0.26078
H          2.01187       -0.07026        0.06194
H          0.77085        2.01543       -0.38528
H         -1.72192        0.15466        0.01372
