43

C          0.46865        0.08252       -0.25454
C          0.59166       -0.80828       -1.48147
N          1.10551       -2.14245       -1.16882
C          0.16666       -3.20184       -0.79940
C         -0.24255       -4.04825       -1.99566
C          2.46672       -2.37854       -1.13346
C          3.06584       -3.28048       -2.02589
C          4.44618       -3.52406       -2.01738
C          5.26044       -2.86116       -1.10489
C          6.69455       -3.07732       -1.03972
C          7.43254       -2.42972       -0.12463
C          8.82884       -2.69656       -0.04433
N          9.64625       -2.90601       -1.07624
C         10.87689       -3.14758       -0.52211
C         12.11945       -3.40556       -1.11193
C         13.20467       -3.63894       -0.25694
Cl        14.75428       -3.96082       -0.93866
C         13.06226       -3.62003        1.13718
C         11.82394       -3.35405        1.73433
C         10.77551       -3.12132        0.85415
O          9.48630       -2.83594        1.16958
C          6.83097       -1.45052        0.81198
O          7.49246       -0.79524        1.60962
O          5.44951       -1.28489        0.73386
C          4.67250       -1.97439       -0.21496
C          3.29974       -1.72937       -0.21852
H          0.07123       -0.45977        0.60889
H         -0.19486        0.92701       -0.46704
H          1.43735        0.50724        0.02464
H         -0.40232       -0.91123       -1.93435
H          1.21777       -0.31982       -2.23819
H          0.58484       -3.84050       -0.01169
H         -0.73670       -2.74804       -0.37313
H          0.53632       -4.77263       -2.25166
H         -1.14597       -4.62099       -1.76315
H         -0.44116       -3.43477       -2.88018
H          2.45930       -3.78465       -2.77265
H          4.86269       -4.22748       -2.73376
H          7.13810       -3.79108       -1.72852
H         12.22599       -3.42122       -2.19012
H         13.92432       -3.81150        1.77346
H         11.68591       -3.32945        2.80808
H          2.88887       -1.05097        0.52021
