26

C          0.98924        0.08202       -0.28124
C          0.64193       -1.32800        0.17213
C          1.07224       -1.63080        1.61043
C          0.44653       -0.73839        2.68826
C         -1.08384       -0.76243        2.75222
C         -1.70406       -2.12451        3.08164
C         -1.30390       -2.72660        4.43609
C         -1.60623       -1.86744        5.65522
Br        -3.52222       -1.70162        5.95251
H          0.42924        0.83461        0.28164
H          0.74040        0.20874       -1.33988
H          2.05829        0.28184       -0.15888
H         -0.43282       -1.49816        0.04959
H          1.14426       -2.03966       -0.49460
H          0.84851       -2.68153        1.82942
H          2.16326       -1.53563        1.67750
H          0.85866       -1.02760        3.66224
H          0.77055        0.29729        2.53110
H         -1.41338       -0.02340        3.49124
H         -1.49427       -0.41657        1.79617
H         -2.79489       -2.02489        3.03578
H         -1.44411       -2.84249        2.29478
H         -1.80399       -3.69815        4.54031
H         -0.22926       -2.94310        4.42435
H         -1.21058       -2.33586        6.56120
H         -1.19936       -0.85663        5.58222
