22

Cl         1.34877        1.65951       -0.10118
C         -0.09925        0.71983       -0.04560
C         -1.30934        1.39794        0.11570
C         -2.51222        0.68776        0.17478
C         -2.52793       -0.71172        0.06115
C         -3.80111       -1.46350        0.12329
C         -4.70989       -1.45366       -0.96617
Cl        -4.31952       -0.57070       -2.41673
C         -5.92050       -2.16388       -0.89401
Cl        -7.07567       -2.17451       -2.18211
C         -6.23838       -2.90019        0.24545
C         -5.35785       -2.93018        1.32488
Cl        -5.82887       -3.87535        2.69540
C         -4.14941       -2.21455        1.27569
Cl        -3.08344       -2.23742        2.65400
C         -1.30373       -1.38123       -0.10851
C         -0.09616       -0.67348       -0.15465
Cl         1.35998       -1.58482       -0.34281
H         -1.32453        2.48249        0.19702
H         -3.44151        1.24111        0.30353
H         -7.17533       -3.45218        0.29254
H         -1.28683       -2.46642       -0.19526
