11

C          0.99719        0.07677       -0.06081
C          0.50196        0.01344        1.37666
C          0.99718        1.19827        2.19308
Cl        -1.28439       -0.01883        1.39271
H          0.65335        0.98628       -0.56574
H          0.64356       -0.78534       -0.63662
H          2.09197        0.06968       -0.09179
H          0.84059       -0.91865        1.84045
H          0.65334        2.14955        1.77210
H          0.64355        1.13764        3.22802
H          2.09196        1.21870        2.21742
