11

C          0.91029       -0.05419       -0.06561
S          0.27233       -1.44254       -0.97072
C          0.91029       -2.83464       -0.07138
O         -1.17011       -1.44284       -0.82457
O          0.89092       -1.43982       -2.28193
H          0.53354       -0.09705        0.95789
H          0.56360        0.85887       -0.55401
H          2.00092       -0.09490       -0.07970
H          0.53353       -2.79604        0.95228
H          0.56359       -3.74566       -0.56358
H          2.00091       -2.79389       -0.08531
