35

C          0.38621       -0.47378       -0.62736
O          0.43585        0.08948       -1.92368
C          1.00785        1.39572       -2.02263
O          0.36923        2.36536       -1.19287
C         -1.01217        2.52650       -1.47176
C          2.57206        1.45809       -1.88406
C          3.19951        0.30991       -2.70757
C          3.05394        2.79135       -2.51426
C          3.13845        1.36664       -0.42666
C          2.60062        2.36451        0.56763
C          2.03452        2.12491        1.76551
C          1.41414        3.25363        2.54827
C          1.92165        0.77724        2.42025
H         -0.30334       -1.32261       -0.65936
H          0.00976        0.23391        0.11364
H          1.36011       -0.86685       -0.33615
H          0.79366        1.69052       -3.05895
H         -1.17588        2.76680       -2.52578
H         -1.57201        1.62863       -1.19582
H         -1.38392        3.35670       -0.86421
H          2.85260        0.33411       -3.74694
H          4.29290        0.38405       -2.72181
H          2.94344       -0.67084       -2.29329
H          2.60963        3.66381       -2.02566
H          4.14393        2.88855       -2.45091
H          2.78563        2.84332       -3.57605
H          3.02406        0.34711       -0.05493
H          4.22585        1.52330       -0.46918
H          2.63517        3.39928        0.22725
H          0.33347        3.09677        2.63386
H          1.84084        3.30626        3.55446
H          1.57032        4.22697        2.07085
H          0.91407        0.37269        2.28861
H          2.64401        0.05548        2.03108
H          2.11326        0.85898        3.49555
