46

C          0.30469       -0.11021       -0.00452
O         -0.13121        1.23262        0.13722
C          0.65248        2.13761        0.80354
C         -0.02241        3.35238        1.00554
C          0.58184        4.39679        1.71246
N         -0.17214        5.62886        1.97340
O         -1.35050        5.67655        1.58804
O          0.40838        6.54376        2.57111
C          1.88359        4.25923        2.19893
C          2.56470        3.05722        1.98332
C          1.96587        1.98450        1.29091
N          2.67949        0.77737        1.22196
N          3.33175        0.69258        0.15950
C          3.93203       -0.57968        0.02833
C          4.07363       -1.13233       -1.24407
C          4.74704       -2.35215       -1.43741
C          5.30838       -3.07015       -0.37020
N          6.10732       -4.19106       -0.55667
C          6.06824       -4.98405       -1.80598
C          7.30348       -4.73690       -2.68357
O          8.40733       -5.52997       -2.24123
C          6.99823       -4.70388        0.51148
C          8.25841       -3.83671        0.70568
O          8.00545       -2.58876        1.34327
C          5.05952       -2.54394        0.90818
C          4.41640       -1.31634        1.10754
H         -0.54693       -0.69680       -0.36164
H          0.61348       -0.54870        0.94886
H          1.08023       -0.18386       -0.77045
H         -1.03727        3.45212        0.62261
H          2.37047        5.05778        2.75534
H          3.57328        2.93998        2.37770
H          3.67452       -0.60221       -2.10570
H          4.85358       -2.69179       -2.46315
H          6.01192       -6.04915       -1.54714
H          5.16121       -4.77838       -2.38344
H          7.09168       -5.04345       -3.71240
H          7.59655       -3.68136       -2.69496
H          9.07580       -4.92273       -1.88360
H          6.45175       -4.82121        1.45275
H          7.33532       -5.71317        0.24555
H          8.96870       -4.37409        1.34052
H          8.75228       -3.62162       -0.24484
H          7.47431       -2.06888        0.71177
H          5.40613       -3.05399        1.80297
H          4.31890       -0.93790        2.12184
