12

C          1.08770        0.01470       -0.03746
N          0.52617        1.22965       -0.56599
C         -0.25020        1.41888       -1.64949
N         -0.68040        2.58072       -1.99973
N         -0.59304        0.36738       -2.39656
H          0.83723       -0.87901       -0.61294
H          0.73314       -0.13714        0.98657
H          2.17837        0.09820       -0.00789
H          0.75829        2.05715       -0.03284
H         -0.34064        3.28023       -1.34043
H         -0.31584       -0.57955       -2.21780
H         -1.17656        0.55807       -3.19943
