58

C          0.99940        0.07975       -0.44769
C          0.51642       -1.18632       -1.14160
C          1.02011       -2.47717       -0.48961
C          0.66481       -2.64423        0.99194
C         -0.84398       -2.67795        1.33349
C         -1.60453       -3.81253        0.61740
C         -1.15846       -5.22104        0.98436
C         -1.06891       -2.74103        2.86310
O         -0.76929       -1.46598        3.45372
C          0.48472       -1.30071        3.94489
O          1.31838       -2.18106        4.10132
O          0.69423        0.03507        4.08441
O          2.13973        0.24253        4.01679
C          2.51259        0.83293        5.18251
O          1.83649        0.91684        6.19675
O          3.71803        1.41729        4.97217
C          4.16871        2.36898        5.94991
C          3.85924        3.79989        5.46104
C          2.34379        4.11540        5.42926
C          1.66130        4.18410        6.78914
C          4.61862        4.86848        6.27296
C          6.14202        4.88500        6.08859
C          6.64096        5.05135        4.65043
C          6.12634        6.30795        3.96502
H          0.55073        0.18955        0.54434
H          0.71936        0.96068       -1.03419
H          2.08847        0.07889       -0.33697
H         -0.57794       -1.18355       -1.18496
H          0.86844       -1.16794       -2.18014
H          0.65378       -3.33563       -1.06298
H          2.11416       -2.50435       -0.57780
H          1.14379       -3.55878        1.36226
H          1.14779       -1.82468        1.53061
H         -1.27771       -1.72997        0.98860
H         -2.67396       -3.71879        0.84526
H         -1.52226       -3.68629       -0.46805
H         -1.29846       -5.42074        2.05070
H         -1.75317       -5.95490        0.43061
H         -0.10793       -5.39094        0.73322
H         -2.12762       -2.92761        3.07551
H         -0.50010       -3.55082        3.33361
H          3.75913        2.16598        6.94486
H          5.25007        2.21896        6.02262
H          4.17740        3.85997        4.41250
H          2.19756        5.08041        4.92689
H          1.82390        3.38191        4.80373
H          2.02956        5.03051        7.37612
H          0.58302        4.32091        6.65637
H          1.80987        3.27287        7.37296
H          4.22982        5.86203        6.01706
H          4.41168        4.72893        7.34151
H          6.54528        5.70705        6.69394
H          6.57460        3.96864        6.50558
H          7.73692        5.09011        4.66992
H          6.37760        4.17317        4.05099
H          6.35802        7.20054        4.55450
H          6.59658        6.41939        2.98261
H          5.04415        6.26647        3.80964
