17

N          1.07361       -0.08839       -0.02136
N          0.45084        0.52150        1.09285
C         -0.21354        1.74661        1.09069
O         -0.47159        2.26629        2.17715
C         -0.55072        2.34899       -0.18823
C         -1.08953        1.76904       -1.32409
C         -1.25425        2.70695       -2.38783
C         -0.84384        3.96820       -2.01306
N         -0.84096        5.14906       -2.83765
O         -0.45045        6.21324       -2.34189
O         -1.22483        5.00041       -4.00600
S         -0.30359        4.03330       -0.40469
H          1.24717        0.60902       -0.75058
H          2.01110       -0.39015        0.26254
H          0.62906        0.15593        2.02740
H         -1.35269        0.71792       -1.38709
H         -1.64951        2.46255       -3.36794
