49

C          0.41498       -0.25863       -0.28040
C          0.76681       -1.38134       -1.25110
N          1.26505       -2.60141       -0.60046
C          0.26923       -3.43884        0.09103
C         -0.20310       -4.59336       -0.77967
C          2.60344       -2.77100       -0.26223
C          3.18916       -4.04353       -0.25539
C          4.52109       -4.25344        0.13779
C          5.32901       -3.19862        0.56984
N          6.67912       -3.52177        0.89265
N          7.47260       -2.69965        0.39296
C          8.82258       -3.09398        0.49396
C          9.58533       -2.96390        1.67229
Br         8.83087       -2.54321        3.35917
C         10.97891       -3.14254        1.67251
C         11.63941       -3.47953        0.48958
N         13.10331       -3.57993        0.48015
O         13.71142       -3.17325        1.47874
O         13.63628       -4.04540       -0.53481
C         10.91618       -3.69358       -0.68255
C          9.52428       -3.49308       -0.65779
N          8.80345       -3.72640       -1.89593
O          8.96801       -4.83312       -2.42623
O          8.14622       -2.79163       -2.36668
C          4.74798       -1.91094        0.57334
N          5.43393       -0.75411        1.01922
C          5.99547       -0.69859        2.27840
C          6.85687        0.52646        2.45788
O          5.80602       -1.50211        3.17559
C          3.43337       -1.70947        0.10923
H          0.06823       -0.62712        0.68904
H         -0.37098        0.37313       -0.70823
H          1.27084        0.39865       -0.10334
H         -0.14235       -1.64480       -1.80679
H          1.47846       -1.02343       -2.00497
H          0.65090       -3.81416        1.04896
H         -0.60826       -2.83037        0.34285
H          0.54373       -5.38931       -0.83375
H         -1.11130       -5.03416       -0.35537
H         -0.42321       -4.26737       -1.80054
H          2.62557       -4.90453       -0.59877
H          4.93177       -5.25933        0.08536
H         11.53928       -3.00032        2.59699
H         11.41312       -3.98333       -1.60771
H          5.09917        0.13700        0.66690
H          7.32611        0.50444        3.44546
H          7.64614        0.53160        1.69962
H          6.25089        1.43125        2.36954
H          3.03474       -0.70489        0.13932
