20

N          0.98674       -0.06342        0.07618
C          2.24771       -0.06342        0.07618
C          3.76771       -0.06342        0.07618
C          4.26013        0.75338        1.27683
O          4.06329        0.05526        2.52240
C          2.83072        0.28105        3.07983
C          2.42050        1.54724        3.49732
C          1.12307        1.72875        3.98241
C          0.24696        0.64580        4.06205
C          0.67773       -0.62788        3.69161
C          1.97884       -0.81448        3.22302
H          4.12149       -1.09761        0.14055
H          4.12453        0.38061       -0.85842
H          5.34359        0.88645        1.17987
H          3.82450        1.76054        1.28577
H          3.09326        2.39659        3.44052
H          0.78755        2.71733        4.28531
H         -0.77327        0.79329        4.40732
H         -0.00777       -1.46965        3.74106
H          2.30182       -1.80392        2.91267
