129

C          1.16637       -0.63131        0.51938
C          0.69485        0.57735        1.31431
C          0.86201        1.87826        0.53512
C         -0.03886        1.96636       -0.70220
C         -1.51482        2.15986       -0.34630
C         -1.78849        3.48873        0.36726
C         -1.38559        4.70697       -0.46894
C         -2.15393        4.78343       -1.79275
C         -3.66057        4.93819       -1.58309
C         -4.00788        6.20075       -0.79098
C         -3.57337        7.47722       -1.51499
C         -4.30503        7.66012       -2.84948
C         -5.82526        7.73368       -2.68903
C         -6.26841        8.78364       -1.66287
C         -5.70290       10.17874       -1.93641
C         -6.17997       10.75968       -3.26258
C         -7.64852       11.16025       -3.25612
C         -7.93208       12.38049       -2.37472
O         -7.55185       13.61929       -3.00246
C         -6.31130       14.11877       -2.79732
O         -5.43581       13.58823       -2.13139
C         -6.18380       15.50318       -3.38134
C         -6.33034       15.68961       -4.88636
S         -7.94477       15.59722       -5.74638
C         -8.28164       13.81164       -5.97603
C         -7.67069       12.99414       -7.10729
C         -6.21286       12.61542       -7.03491
O         -5.81687       11.46081       -7.07347
O         -5.42551       13.71553       -7.05339
C         -3.99771       13.56595       -7.16424
C         -3.30400       13.49099       -5.80064
C         -3.44171       12.12773       -5.13753
C         -2.65120       11.02870       -5.83825
C         -1.14006       11.17051       -5.64519
C         -0.69762       11.04676       -4.18207
C         -1.19213        9.76091       -3.51553
C         -0.83544        8.50137       -4.31301
C          0.67539        8.35135       -4.50594
C          1.41462        8.17387       -3.17771
C          0.98018        6.90759       -2.43901
C          1.22710        5.63851       -3.26188
C          2.71285        5.42160       -3.56378
C          3.56105        5.26361       -2.29668
C          3.12296        4.08157       -1.42868
C          3.30753        2.73110       -2.13042
C          4.76900        2.31661       -2.27098
C          5.41827        2.03985       -0.92304
H          0.57449       -0.77975       -0.38840
H          1.07382       -1.53812        1.12226
H          2.21528       -0.51673        0.22670
H         -0.34708        0.43926        1.61905
H          1.28478        0.64625        2.23484
H          0.68573        2.72897        1.20102
H          1.91017        1.96843        0.24578
H          0.29792        2.78718       -1.34155
H          0.06594        1.07645       -1.32980
H         -2.11085        2.09542       -1.26385
H         -1.86810        1.33603        0.28101
H         -2.85102        3.53959        0.62784
H         -1.26474        3.52620        1.32732
H         -1.53549        5.61635        0.12247
H         -0.31099        4.69602       -0.66829
H         -1.77521        5.61514       -2.39098
H         -1.96037        3.89953       -2.40843
H         -4.15788        4.94479       -2.55854
H         -4.06982        4.06506       -1.06559
H         -5.08437        6.21228       -0.59442
H         -3.55011        6.17962        0.20323
H         -3.74351        8.33344       -0.85404
H         -2.49291        7.48336       -1.68698
H         -3.95236        8.56917       -3.34068
H         -4.04809        6.85434       -3.54544
H         -6.27601        7.93836       -3.66598
H         -6.22005        6.75571       -2.39205
H         -7.36163        8.80949       -1.62906
H         -5.95957        8.47781       -0.65665
H         -5.96404       10.83777       -1.10356
H         -4.60731       10.16044       -1.94282
H         -5.57752       11.63525       -3.48277
H         -5.99136       10.06002       -4.08434
H         -7.94463       11.35664       -4.29029
H         -8.26228       10.31860       -2.92018
H         -9.01594       12.44959       -2.23876
H         -7.49676       12.30294       -1.37513
H         -6.83428       16.17952       -2.82114
H         -5.15338       15.81050       -3.14128
H         -6.02211       16.72658       -5.07627
H         -5.59762       15.09699       -5.40723
H         -8.17360       13.28996       -5.04032
H         -9.36308       13.79944       -6.16763
H         -8.20673       12.03160       -7.10342
H         -7.86718       13.44032       -8.08540
H         -3.74549       12.73227       -7.82459
H         -3.65277       14.47616       -7.66479
H         -2.24526       13.74288       -5.91702
H         -3.71901       14.23706       -5.11735
H         -3.15670       12.19969       -4.08207
H         -4.48858       11.84117       -5.13661
H         -3.00233       10.06034       -5.46451
H         -2.87249       11.00905       -6.90913
H         -0.64179       10.40665       -6.25318
H         -0.78737       12.12612       -6.04440
H          0.39577       11.09886       -4.13436
H         -1.04958       11.90595       -3.60120
H         -0.79476        9.69949       -2.49671
H         -2.27448        9.81891       -3.38436
H         -1.25759        7.62275       -3.81619
H         -1.31784        8.50998       -5.29593
H          0.86852        7.50982       -5.17899
H          1.08869        9.21877       -5.02973
H          2.49273        8.16054       -3.36518
H          1.25369        9.03967       -2.52705
H          1.49413        6.85382       -1.47424
H         -0.07770        6.97602       -2.17589
H          0.81300        4.77407       -2.73663
H          0.66810        5.66865       -4.20307
H          2.82097        4.54668       -4.21207
H          3.10780        6.25550       -4.15376
H          4.61306        5.16138       -2.57922
H          3.51483        6.17924       -1.69602
H          3.66787        4.11039       -0.48050
H          2.07515        4.20312       -1.14016
H          2.78329        1.94655       -1.58257
H          2.83368        2.74204       -3.11711
H          4.81428        1.40583       -2.87808
H          5.33856        3.08075       -2.80880
H          4.87112        1.26026       -0.38278
H          6.44866        1.70370       -1.06318
H          5.44810        2.93318       -0.29258
