12

C          1.04067        0.00932        0.13338
O          0.56147        0.86060        1.17704
C          0.97866        0.50613        2.42371
O          1.66828       -0.47245        2.68108
C          0.43041        1.43644        3.46292
C          0.93707        2.84926        3.22285
N          1.35739        4.02131        3.02370
H          0.66620        0.39662       -0.81815
H          0.66183       -1.00867        0.26731
H          2.13475        0.01648        0.10464
H         -0.66311        1.40552        3.43862
H          0.75854        1.10036        4.45203
