34

C          1.18372       -0.03852        0.13736
C          0.81626        1.32822       -0.41652
C          1.17961        1.51343       -1.89396
C          0.47703        0.56501       -2.88164
C         -1.02712        0.49352       -2.89170
C         -1.72187       -0.64576       -3.26768
C         -1.05708       -1.91166       -3.72567
N         -3.07483       -0.72674       -3.21483
C         -3.78343        0.33769       -2.81474
N         -5.15357        0.20486       -2.62269
C         -5.81132       -0.87434       -3.33591
C         -5.89153        1.44342       -2.45782
N         -3.20057        1.50865       -2.54006
C         -1.86400        1.54676       -2.60495
O         -1.39123        2.79242       -2.35087
H          0.62596       -0.83763       -0.35910
H          0.94773       -0.08343        1.20566
H          2.25389       -0.23426        0.01934
H         -0.25117        1.50542       -0.25209
H          1.34626        2.09242        0.16504
H          0.99765        2.55532       -2.17931
H          2.26304        1.37172       -2.00520
H          0.80212        0.82748       -3.89674
H          0.88272       -0.43283       -2.67886
H         -1.02484       -2.63186       -2.90262
H         -1.62954       -2.35152       -4.55022
H         -0.04390       -1.75248       -4.10249
H         -6.76138       -1.11173       -2.84314
H         -6.03123       -0.58457       -4.36930
H         -5.23523       -1.80601       -3.34493
H         -5.56951        1.97824       -1.55677
H         -5.77706        2.10107       -3.32733
H         -6.96159        1.24097       -2.33503
H         -2.22970        3.25480       -2.17378
