20

N          1.53848        0.16222        0.86979
N          0.18552        0.50542        1.17137
C         -0.38412        1.65711        0.68102
O         -1.05872        2.37031        1.42418
N         -0.12006        2.05741       -0.59362
C          0.04674        1.30954       -1.77669
C          0.37721        2.01848       -2.93811
C          0.53831        1.35404       -4.15654
C          0.35580       -0.02444       -4.22703
C          0.00402       -0.73508       -3.08192
C         -0.15754       -0.06993       -1.86281
H          1.69425        0.30897       -0.13120
H          2.14373        0.85030        1.32649
H         -0.10269        0.33670        2.13508
H         -0.33901        3.03683       -0.72822
H          0.52523        3.09516       -2.90818
H          0.80342        1.91350       -5.05010
H          0.47759       -0.54363       -5.17426
H         -0.15561       -1.80928       -3.13598
H         -0.46568       -0.65354       -0.99997
