22

Cl        -2.73886        0.77010       -0.05366
C         -1.23095       -0.05716       -0.02642
C         -1.20511       -1.43924        0.13205
C          0.01908       -2.11305        0.15856
C          1.23394       -1.41437        0.02326
C          2.50148       -2.16765        0.05899
C          2.86683       -2.94301       -1.05789
C          4.06033       -3.67412       -1.07344
Cl         4.41149       -4.60605       -2.48466
C          4.91404       -3.63587        0.03200
Cl         6.40418       -4.50811        0.08210
C          4.56695       -2.87849        1.15192
C          3.36823       -2.15782        1.16933
Cl         2.98658       -1.28696        2.61557
C          1.17751       -0.01654       -0.15310
Cl         2.60975        0.92830       -0.38789
C         -0.04677        0.65940       -0.17003
H         -2.13131       -1.99938        0.23829
H          0.01961       -3.19394        0.29122
H          2.21254       -2.97363       -1.92859
H          5.22758       -2.85260        2.01566
H         -0.07504        1.73785       -0.29902
