46

C          1.02135       -0.00233        0.26537
C          0.70002        0.82511       -0.96299
O          1.14803        0.14613       -2.14379
C          2.41269        0.41254       -2.55725
O          3.20351        1.13404       -1.95850
C          2.73523       -0.25286       -3.90067
C          2.47693       -1.75666       -3.91255
O          2.19786        0.43113       -5.04815
C          0.87047        0.36419       -5.28634
O          0.01442       -0.19615       -4.62800
C          0.54552        1.22764       -6.43464
C         -0.52725        2.11609       -6.26618
C         -0.88903        2.99613       -7.28985
O         -1.99278        3.77973       -7.02271
C         -2.63341        4.38987       -8.07483
C         -2.64726        5.78686       -8.05951
C         -3.25228        6.49198       -9.10120
C         -3.85398        5.80824      -10.16948
C         -4.46403        6.58146      -11.31404
F         -5.59518        7.24270      -10.95021
F         -3.61679        7.52594      -11.80853
F         -4.80681        5.79824      -12.37332
C         -3.89066        4.40424      -10.14324
C         -3.30209        3.69599       -9.09117
Cl        -3.44081        1.97504       -9.09976
C         -0.13932        3.03201       -8.47111
C          0.90808        2.12656       -8.66471
C          1.23215        1.21243       -7.65083
N          2.24140        0.20356       -7.93786
O          3.22940        0.56337       -8.59213
O          2.02056       -0.95352       -7.55846
H          0.60339       -1.00981        0.17024
H          0.61384        0.46624        1.16560
H          2.10305       -0.11509        0.38801
H         -0.38460        0.94428       -1.05517
H          1.12769        1.83188       -0.89163
H          3.82281       -0.14335       -4.00817
H          1.42214       -2.00185       -3.76035
H          2.77168       -2.18733       -4.87520
H          3.04119       -2.25337       -3.11651
H         -1.09423        2.11507       -5.33557
H         -2.17789        6.32618       -7.23957
H         -3.24600        7.58181       -9.08275
H         -4.38120        3.85981      -10.94967
H         -0.37329        3.73155       -9.26965
H          1.44299        2.12646       -9.61341
