54

C          1.09549        0.21771       -0.08793
N          0.46363        1.52168        0.04605
C         -1.00408        1.43748        0.18235
C         -1.50198        0.82306        1.51460
O         -1.09971        1.64133        2.61555
C         -3.00373        0.64803        1.58241
C         -3.88921        1.73319        1.50002
C         -5.26956        1.53284        1.60136
C         -5.77491        0.24087        1.76216
O         -7.15958        0.13705        1.97615
C         -7.89969       -0.63679        1.09028
O         -7.44428       -1.26141        0.13797
C         -9.40106       -0.55982        1.41151
C         -9.70884        0.11851        2.75587
C        -10.06614        0.23885        0.28194
C         -9.96890       -1.98649        1.44606
C         -4.90964       -0.85177        1.83689
O         -5.45656       -2.12884        2.07010
C         -4.89220       -3.25675        1.46772
O         -3.90654       -3.26414        0.73958
C         -5.71070       -4.51297        1.78727
C         -6.43218       -4.41805        3.13864
C         -6.72721       -4.70183        0.65639
C         -4.75761       -5.72000        1.82992
C         -3.53082       -0.64167        1.76959
H          0.67721       -0.34182       -0.93093
H          1.00151       -0.38261        0.82161
H          2.16449        0.34986       -0.28189
H          0.85931        2.03736        0.82945
H         -1.37268        2.46775        0.10405
H         -1.42081        0.89334       -0.67403
H         -1.03637       -0.15796        1.66040
H         -0.14568        1.49754        2.72307
H         -3.50391        2.74523        1.39093
H         -5.94244        2.38526        1.57252
H         -9.35390        1.15527        2.77542
H        -10.78763        0.13949        2.95017
H         -9.23093       -0.41150        3.58770
H         -9.87801       -0.22016       -0.69559
H        -11.15137        0.29859        0.41963
H         -9.67316        1.26133        0.24037
H         -9.78865       -2.51607        0.50393
H         -9.50520       -2.57562        2.24549
H        -11.05144       -1.97838        1.61876
H         -7.17312       -3.61086        3.14830
H         -6.96202       -5.34899        3.36972
H         -5.72276       -4.22274        3.95108
H         -6.23963       -4.67205       -0.32523
H         -7.24940       -5.66041        0.74443
H         -7.48095       -3.90820        0.66669
H         -4.23635       -5.85618        0.87520
H         -3.99178       -5.59076        2.60362
H         -5.30006       -6.64788        2.04379
H         -2.84755       -1.48000        1.87568
