21

C          1.01022       -0.01631       -0.10700
N          0.48557       -1.01552        0.83119
C         -0.32170       -0.42996        1.88429
C          0.77299       -2.35932        0.66505
N          1.51837       -2.75555       -0.33387
N          0.32220       -3.36648        1.49850
C         -0.50619       -3.34384        2.68551
C          0.73335       -4.74374        1.16062
H          0.70970        1.00840        0.13665
H          0.64505       -0.21624       -1.12042
H          2.10574       -0.02940       -0.10459
H         -1.34934       -0.80233        1.83415
H          0.13084       -0.61300        2.86353
H         -0.40537        0.66017        1.80409
H          1.81425       -1.97287       -0.90328
H         -1.39972       -3.95867        2.52404
H          0.04623       -3.77371        3.52962
H         -0.86485       -2.38173        3.02428
H          0.36286       -5.02455        0.16836
H          1.82481       -4.83755        1.18507
H          0.33401       -5.47846        1.86996
