21

O          0.93387       -0.13980       -0.73912
C          2.10764        0.01070       -0.43633
O          2.65523        1.24419       -0.26430
C          3.12550       -1.11208       -0.26638
N          2.68352       -2.40139        0.22825
C          3.00813       -3.53320       -0.51711
O          3.61433       -3.56548       -1.57947
S          2.49433       -4.99484        0.31645
C          1.89118       -4.04941        1.68340
C          1.33127       -4.59418        2.83392
C          0.89650       -3.73314        3.83158
C          1.06648       -2.35498        3.67629
C          1.68230       -1.81732        2.52999
Cl         1.96931       -0.12196        2.58333
C          2.07553       -2.66948        1.49396
H          3.58427        1.24492        0.03875
H          3.53970       -1.23619       -1.27566
H          3.95617       -0.79432        0.37056
H          1.23479       -5.66976        2.95387
H          0.44049       -4.12823        4.73660
H          0.72883       -1.69477        4.47430
