43

C          0.81346       -0.60714        0.23358
O          0.44618       -1.63785       -0.68448
C          0.99956       -1.49507       -1.91283
O          1.76630       -0.60786       -2.25355
C          0.48348       -2.54500       -2.82774
C          1.31060       -3.14845       -3.70448
C          2.80421       -2.92450       -3.75735
N          0.87504       -4.03158       -4.66416
C         -0.34271       -4.47246       -4.62989
C         -0.74794       -5.48035       -5.67994
C         -1.35137       -4.12557       -3.56258
C         -1.55760       -5.30577       -2.63992
O         -2.51227       -6.06665       -2.73968
O         -0.53771       -5.45079       -1.75467
C         -0.68016       -6.57097       -0.87864
C         -1.00197       -2.83973       -2.78785
C         -1.88802       -1.65899       -3.23790
C         -1.36871       -0.64337       -4.06753
C         -2.14767        0.45024       -4.46580
C         -3.47905        0.55148       -4.07588
C         -4.04142       -0.44722       -3.28923
C         -3.25219       -1.53427       -2.87536
N         -3.93553       -2.54845       -2.07949
O         -4.96425       -3.03779       -2.56290
O         -3.44378       -2.84597       -0.98475
H          0.32156       -0.81117        1.18835
H          0.47085        0.36712       -0.13031
H          1.89618       -0.60143        0.39381
H          3.31920       -3.86574       -3.98321
H          3.05037       -2.20552       -4.54519
H          3.22061       -2.57189       -2.80989
H         -0.24739       -5.25764       -6.62629
H         -0.45397       -6.47934       -5.34554
H         -1.82904       -5.45826       -5.83742
H         -2.31186       -3.99047       -4.07876
H         -1.54162       -6.42748       -0.21911
H         -0.77848       -7.50016       -1.44912
H          0.22181       -6.63773       -0.26434
H         -1.22997       -3.00523       -1.73007
H         -0.33771       -0.66822       -4.42084
H         -1.70485        1.22727       -5.08679
H         -4.07734        1.40261       -4.39269
H         -5.08946       -0.37595       -3.00298
