8

C          0.94315        0.06627        0.05393
C          0.43813        1.25141        0.84989
Cl         1.01483        2.77238        0.13528
H          0.58847        0.10386       -0.98133
H          0.58469       -0.86734        0.49891
H          2.03760        0.03474        0.04102
H         -0.65520        1.27577        0.85867
H          0.79587        1.20656        1.88239
