16

C          0.91351       -0.06050        0.00983
O          0.55322       -1.22831       -0.72874
C          0.75957       -1.12287       -2.07267
O          1.20255       -0.13173       -2.63937
C          0.32530       -2.40174       -2.78487
O          0.76797       -3.63810       -2.24155
C          2.17823       -3.77046       -2.26204
O          2.65808       -3.78965       -3.58924
H          0.54807       -0.18020        1.03346
H          0.45155        0.83660       -0.41524
H          2.00253        0.04050        0.03711
H         -0.77045       -2.41311       -2.77112
H          0.62148       -2.33338       -3.83787
H          2.66102       -2.95858       -1.70916
H          2.44838       -4.71190       -1.77348
H          2.43916       -4.67216       -3.93145
