23

C          1.04820       -0.12444        0.32062
C          0.66210        1.34643        0.35926
C          1.16221        2.13346       -0.85430
C          0.57276        1.70277       -2.20191
C         -0.94812        1.84893       -2.33764
C         -1.49089        3.26067       -2.13122
C         -1.12162        4.19056       -3.25231
O         -1.82224        4.47992       -4.20803
O          0.11593        4.70321       -3.12847
H          0.55833       -0.64723       -0.50583
H          0.74702       -0.61753        1.25034
H          2.13119       -0.24225        0.21163
H         -0.42444        1.43994        0.45938
H          1.09597        1.79325        1.26210
H          0.96528        3.19857       -0.68837
H          2.25401        2.03835       -0.91025
H          1.06356        2.27939       -2.99458
H          0.83877        0.65744       -2.39831
H         -1.23446        1.49792       -3.33739
H         -1.43983        1.17559       -1.62607
H         -2.58708        3.22202       -2.10098
H         -1.18459        3.69723       -1.17578
H          0.22593        5.25689       -3.92969
