28

Cl        -2.12748        0.49639        0.02868
C         -0.42449        0.25580        0.02037
C          0.09601       -0.99656       -0.28720
C          1.48115       -1.19022       -0.31285
C          2.36504       -0.14233       -0.01225
C          3.89302       -0.30605       -0.05218
C          4.45283       -0.90836        1.24894
C          5.02174       -0.00538        2.17839
C          5.58790       -0.44233        3.37911
C          5.58441       -1.79314        3.69641
C          5.02388       -2.70372        2.80607
C          4.47150       -2.27390        1.58972
Cl         3.87266       -3.52936        0.57043
C          4.43508       -0.91186       -1.37768
Cl         3.94720        0.08653       -2.79793
Cl         6.23053       -0.98980       -1.38952
C          1.81376        1.11439        0.30522
C          0.42915        1.31372        0.31215
H         -0.56718       -1.82637       -0.51737
H          1.83985       -2.17664       -0.58762
H          4.28269        0.72498       -0.07589
H          5.04772        1.06288        1.96619
H          6.03572        0.27490        4.06314
H          6.02160       -2.14019        4.62910
H          5.02932       -3.76149        3.06196
H          4.06550       -1.91636       -1.58143
H          2.45864        1.96173        0.53051
H          0.02596        2.29731        0.53954
