38

C          1.29911       -0.18496        0.16764
N          0.83131       -1.03740        1.25453
C          0.92365       -2.30402        1.05253
O          1.38904       -2.84510       -0.10363
C          1.24519       -4.27830       -0.12168
C          2.53981       -4.97806       -0.46863
C          3.75275       -4.28632       -0.61179
C          4.92166       -4.96225       -0.97170
C          4.89652       -6.33724       -1.19166
C          3.70353       -7.03988       -1.04900
C          2.53440       -6.36596       -0.69113
C          0.69802       -4.61135        1.24498
O          0.42372       -5.74156        1.63776
C          0.47307       -3.35556        2.02721
C          1.15409       -3.26232        3.38064
C          2.12451       -4.17404        3.81944
C          2.71084       -4.04126        5.08080
C          2.34703       -2.98982        5.92017
C          1.38959       -2.05475        5.50812
C          1.00578       -0.91510        6.41998
F          0.40860       -1.34622        7.56630
F          2.08066       -0.17731        6.81615
F          0.13455       -0.03091        5.85852
C          0.79809       -2.20616        4.24323
H          1.07229        0.85757        0.41172
H          0.79506       -0.41505       -0.77720
H          2.38324       -0.26820        0.03956
H          0.48353       -4.50576       -0.87589
H          3.80484       -3.21010       -0.45833
H          5.85272       -4.41249       -1.08678
H          5.80582       -6.86057       -1.47593
H          3.68090       -8.11353       -1.21884
H          1.61294       -6.93781       -0.58599
H         -0.61233       -3.25273        2.15275
H          2.43653       -5.01472        3.20204
H          3.45293       -4.76537        5.41029
H          2.81399       -2.89993        6.89993
H          0.05294       -1.47715        3.91828
