23

Cl        -2.07983       -0.16906       -0.66919
C         -0.39453       -0.05742       -0.33534
C          0.31009       -1.20049        0.04218
C          1.67742       -1.11591        0.30363
C          2.32990        0.11296        0.19372
C          1.61791        1.26033       -0.16855
O          2.36251        2.41454       -0.28713
C          1.72683        3.61485       -0.07985
C          1.75913        4.55114       -1.11282
C          1.15586        5.79635       -0.93720
C          0.53835        6.10687        0.27545
C          0.53121        5.17735        1.31696
C          1.13459        3.93106        1.14477
C          0.25222        1.17252       -0.45139
H         -0.19760       -2.15775        0.12643
H          2.23476       -2.00494        0.58778
H          3.39757        0.17792        0.39018
H          2.24730        4.30865       -2.05252
H          1.17041        6.52547       -1.74308
H          0.06928        7.07826        0.41177
H          0.06035        5.42675        2.26444
H          1.14223        3.21530        1.96162
H         -0.30976        2.04584       -0.76834
