21

C          1.80885        1.51127       -0.04396
C          0.54002        0.70343        0.00884
C         -0.69380        1.37889        0.04889
C         -1.89474        0.67191        0.07187
C         -1.85963       -0.71920        0.03768
S         -3.35140       -1.66255        0.04649
O         -3.45756       -2.34904       -1.22143
O         -3.41546       -2.37884        1.30156
O         -4.55777       -0.59025        0.08051
C         -0.64294       -1.40586       -0.00673
C          0.56717       -0.70511        0.03147
N          1.76371       -1.41761       -0.13701
H          2.41527        1.31977        0.84727
H          2.38482        1.25957       -0.94015
H          1.60183        2.58624       -0.07707
H         -0.72296        2.46692        0.05080
H         -2.83644        1.21330        0.10021
H         -5.39998       -1.09024        0.09500
H         -0.64159       -2.49207       -0.06623
H          1.72107       -2.37977        0.18522
H          2.58682       -0.93906        0.21298
