35

C          0.76127       -0.87049        0.29624
C          0.09962       -0.68440       -0.85234
C         -1.37418       -0.69573       -0.99876
O         -1.91808       -0.94556       -2.06503
O         -1.99060       -0.27713        0.13974
C         -3.33718        0.19114       -0.05253
C         -3.65247        1.36267        0.89292
N         -3.20426        2.73510        0.39271
C         -3.90505        3.79803        1.15576
S         -1.49582        2.89341        0.31516
O         -1.02441        2.67187        1.67310
O         -1.08319        2.02723       -0.76240
C         -1.07338        4.59668       -0.20483
F         -1.69718        4.92086       -1.37393
F         -1.47337        5.53351        0.70513
C          0.43990        4.59665       -0.35622
F          1.02651        4.40629        0.85890
F          0.86625        3.57026       -1.14025
C          0.94034        5.87777       -0.96016
F          0.38113        6.07731       -2.18675
F          0.56985        6.94476       -0.20100
C          2.45503        5.80122       -1.08262
F          3.06112        5.65559        0.11903
F          2.86287        4.77060       -1.86014
F          2.96216        6.92875       -1.63991
H          0.24709       -1.08264        1.22695
H          1.84417       -0.80073        0.31991
H          0.63109       -0.46587       -1.77273
H         -3.53697        0.48956       -1.08783
H         -3.99221       -0.64969        0.20173
H         -4.74423        1.40011        0.99985
H         -3.23166        1.18762        1.89016
H         -3.61070        3.79201        2.20883
H         -3.71234        4.77858        0.71564
H         -4.98832        3.64333        1.09668
