8

F          0.91724       -0.00447        0.07652
C          2.27295       -0.06255        0.05174
F          2.69507        1.00094       -0.67810
F          2.69507        0.14634        1.32456
C          2.78568       -1.39644       -0.51748
Cl         2.20939       -2.78783        0.47158
Cl         2.20940       -1.64505       -2.20638
Cl         4.58671       -1.44338       -0.53751
