20

C          0.67401        0.14946        0.00704
C          0.65189        0.55616       -1.45258
C          1.12614       -0.53400       -2.39137
O          0.34811       -1.27439       -2.98725
C          2.57528       -0.66061       -2.65957
C          3.48732       -0.88962       -1.62541
C          4.84599       -1.02225       -1.91634
C          5.28844       -0.92900       -3.23661
C          4.36963       -0.71584       -4.26489
Cl         4.92258       -0.60845       -5.89045
C          3.01109       -0.58892       -3.98597
H          0.39147       -0.89890        0.14310
H         -0.01424        0.77373        0.58559
H          1.67016        0.29241        0.43641
H         -0.37817        0.79688       -1.74453
H          1.23617        1.46795       -1.61730
H          3.15760       -1.00381       -0.59787
H          5.55857       -1.21057       -1.11639
H          6.34753       -1.03491       -3.45864
H          2.29441       -0.43736       -4.78957
