16

N          1.26101       -0.14783       -0.31154
C          2.41563       -0.07241       -0.22312
S          4.09724        0.03455       -0.07628
C          4.50774       -1.19077       -1.30361
C          5.17143       -0.80474       -2.47123
C          5.52535       -1.75931       -3.43120
C          5.19082       -3.10402       -3.25987
N          5.65983       -4.06723       -4.15910
C          4.59219       -3.49440       -2.06041
C          4.23702       -2.54647       -1.09462
H          5.43517        0.23629       -2.64318
H          6.06921       -1.44030       -4.31677
H          5.13441       -4.93607       -4.14182
H          5.79033       -3.71940       -5.10408
H          4.39751       -4.54571       -1.86369
H          3.76257       -2.88643       -0.17689
