24

N          2.40060       -0.12773        0.00943
C          1.01479       -0.14826        0.19476
C          0.24079       -1.13830       -0.41557
C         -1.15423       -1.06015       -0.40889
C         -1.78950        0.02533        0.20253
S         -3.56189        0.12724        0.03680
O         -3.87707       -0.14099       -1.35421
O         -4.10386       -0.69207        1.09524
N         -4.03050        1.67900        0.38185
C         -3.39988        2.79762       -0.18759
N         -3.36673        3.89467        0.53627
N         -2.57043        4.86915       -0.02775
C         -2.08684        4.48424       -1.18902
S         -2.58703        2.92003       -1.68610
C         -1.02869        1.00908        0.83701
C          0.36795        0.94259        0.78225
H          2.81441       -1.04646       -0.11734
H          2.90662        0.43181        0.68838
H          0.71937       -1.97287       -0.92210
H         -1.73707       -1.83725       -0.90029
H         -4.43365        1.82252        1.30348
H         -1.42505        5.10579       -1.77590
H         -1.48037        1.85557        1.34381
H          0.95105        1.76074        1.19932
