20

N          1.03136       -0.07337        0.18033
C          0.37806       -1.02905        0.86931
O         -0.84546       -1.05890        0.89444
N          1.12075       -1.92336        1.54665
C          2.57315       -2.01593        1.71175
C          2.99698       -1.75612        3.15420
C          2.58931       -2.86128        4.08750
O          3.34572       -3.60942        4.68379
O          1.25743       -2.96572        4.24269
C          3.10134       -3.37540        1.25665
O          4.25406       -3.61193        0.93013
O          2.20935       -4.38055        1.37654
H          0.39899        0.51384       -0.35085
H          1.85117       -0.34628       -0.33856
H          0.56466       -2.61578        2.04066
H          3.04550       -1.26776        1.06839
H          4.09058       -1.68151        3.20780
H          2.59315       -0.81081        3.53300
H          1.13590       -3.69376        4.88917
H          2.71914       -5.18677        1.14656
