22

C          0.91131       -0.11770        0.51019
C          0.46575        1.33387        0.39729
C          1.14156        2.11817       -0.73451
C          0.61868        1.85625       -2.12791
C         -0.00546        2.88718       -2.85000
C         -0.44703        2.67988       -4.16030
C         -0.27313        1.43476       -4.75149
O         -0.68304        1.18738       -6.02785
C          0.34025        0.40109       -4.05690
C          0.79709        0.61612       -2.75489
H          0.41755       -0.74574       -0.23615
H          0.64474       -0.51789        1.49390
H          1.99517       -0.21475        0.39072
H         -0.62576        1.37949        0.30719
H          0.72617        1.82771        1.34217
H          1.00924        3.18530       -0.51010
H          2.22558        1.95035       -0.72527
H         -0.13897        3.86899       -2.40088
H         -0.91389        3.49866       -4.69858
H         -1.05937        2.00437       -6.39369
H          0.47572       -0.56667       -4.53033
H          1.30811       -0.19613       -2.24607
