25

O          1.17331        0.06230        0.12862
S          2.62435        0.03512        0.13349
O          3.35373       -0.34836        1.33020
C          3.08530       -1.12827       -1.12930
C          2.82073       -2.48070       -0.87872
C          3.18236       -3.44365       -1.81951
C          3.81237       -3.05711       -3.00191
C          4.07006       -1.70760       -3.25160
C          3.70025       -0.73465       -2.31953
C          3.18367        1.67341       -0.27428
C          4.55647        1.93469       -0.34280
C          4.99471        3.22512       -0.64079
C          4.06760        4.24968       -0.84133
C          2.69963        3.98935       -0.74619
C          2.25213        2.69883       -0.46361
H          2.33347       -2.78421        0.04621
H          2.97549       -4.49413       -1.62952
H          4.10069       -3.80973       -3.73225
H          4.56022       -1.41567       -4.17778
H          3.90197        0.30655       -2.54890
H          5.28394        1.14670       -0.16037
H          6.05926        3.43855       -0.70360
H          4.41210        5.25831       -1.05869
H          1.98200        4.79539       -0.88182
H          1.18418        2.50957       -0.37649
