14

C          1.01867       -0.06516       -0.06587
N          0.43257       -0.03260       -1.39502
C         -1.03536        0.00888       -1.38486
C         -1.65492        1.26890       -0.76386
O         -1.14354        2.44742       -1.37934
H          0.62842       -0.90336        0.52031
H          0.84692        0.86628        0.48156
H          2.10122       -0.20227       -0.15118
H          0.79961        0.74682       -1.93827
H         -1.35582       -0.04879       -2.43186
H         -1.43240       -0.88328       -0.88711
H         -2.73940        1.25807       -0.91151
H         -1.46635        1.32638        0.31282
H         -0.19618        2.48198       -1.16535
