15

C          0.99167        0.03364       -0.12024
C          0.48310       -0.55509       -1.41143
O         -0.05349       -1.66294       -1.43397
C          0.74632        0.20476       -2.68209
C          0.33770        1.64327       -2.61385
O          1.14567        2.56280       -2.56841
C         -1.17384        1.90849       -2.56405
O         -2.01227        1.03206       -2.61098
O         -1.48582        3.20112       -2.44707
H          0.75024       -0.63910        0.70781
H          0.51388        0.99742        0.06973
H          2.07651        0.15167       -0.17422
H          1.81791        0.14712       -2.89992
H          0.22088       -0.27202       -3.51678
H         -2.46402        3.23634       -2.42702
