27

C          1.32897        0.10462        0.41195
C          0.80433       -0.82182       -0.67532
C          1.15376       -2.31425       -0.48086
C          0.58345       -2.83489        0.84892
C          0.63310       -3.17836       -1.66269
N          1.23167       -2.76158       -2.93789
C          0.64030       -1.98195       -3.75849
C         -0.67192       -1.26884       -3.62789
O          1.29088       -1.68190       -4.90064
C          1.00770       -4.65355       -1.47093
O          0.21761       -5.58435       -1.40494
O          2.33343       -4.88355       -1.36477
H          0.84308       -0.07935        1.37358
H          1.12511        1.14551        0.13859
H          2.41044       -0.00718        0.53388
H         -0.28310       -0.70078       -0.74701
H          1.23464       -0.46784       -1.61758
H          2.24759       -2.39940       -0.43296
H         -0.50945       -2.76255        0.86312
H          0.85495       -3.88111        1.02141
H          0.97412       -2.27254        1.70167
H         -0.46143       -3.15605       -1.69220
H         -0.47834       -0.21701       -3.39535
H         -1.22142       -1.32450       -4.57166
H         -1.30678       -1.68770       -2.84844
H          0.81252       -1.05342       -5.46148
H          2.40490       -5.85749       -1.31737
