54

C          0.46622       -0.32182        0.32247
C          0.53291        1.18786        0.48359
O          0.81977        1.81999       -0.77059
C          2.13184        2.16105       -0.92699
C          2.41380        3.48113       -1.24001
C          3.74125        3.88265       -1.39956
C          4.82643        2.99801       -1.19250
C          6.27729        3.55341       -1.11948
C          6.39227        4.75245       -0.20487
O          5.42347        5.16316        0.42258
O          7.63430        5.32008       -0.10142
C          7.64124        6.58095        0.64113
C          6.71154        7.53619       -0.08933
N          5.94027        8.32864       -0.69531
C          7.35984        6.35356        2.12831
C          6.92711        7.37569        2.98100
C          6.58955        7.08839        4.30888
C          6.67177        5.78053        4.79889
C          7.12455        4.75161        3.97726
O          7.14380        3.48397        4.52826
C          7.30533        2.41432        3.67654
C          6.19400        1.64867        3.32248
C          6.35075        0.55997        2.46090
C          7.61372        0.24236        1.95694
C          8.72655        0.99578        2.33321
C          8.57714        2.06705        3.21427
C          7.50943        5.05891        2.67160
C          7.47030        2.59431       -1.11959
C          7.16608        3.39614       -2.35259
Cl         6.60750        2.45973       -3.75328
Cl         8.34546        4.61139       -2.83747
C          4.49732        1.65392       -0.95980
C          3.16723        1.23629       -0.85362
H          0.16347       -0.60259       -0.69097
H         -0.22885       -0.75992        1.04371
H          1.44451       -0.77377        0.51292
H         -0.45566        1.55038        0.78781
H          1.23080        1.48281        1.27917
H          1.61404        4.21262       -1.31944
H          3.92717        4.93902       -1.59749
H          8.66272        6.97103        0.55907
H          6.81324        8.39781        2.62416
H          6.23091        7.88357        4.95902
H          6.36682        5.56587        5.81990
H          5.21052        1.89655        3.71244
H          5.48881       -0.04376        2.18666
H          7.73373       -0.60293        1.28323
H          9.71111        0.74421        1.94743
H          9.44207        2.64960        3.51848
H          7.88198        4.26829        2.03023
H          7.31705        1.52387       -1.15536
H          8.34527        2.85439       -0.53297
H          5.26982        0.90136       -0.83960
H          2.96279        0.18302       -0.70903
