15

O          1.20795        0.64450        0.00238
N          2.17243       -0.09898        0.21778
C          2.75559       -0.64549       -1.04108
C          2.64575       -2.12609       -1.06702
C          3.55894       -3.15420       -0.90832
C          2.83260       -4.36825       -1.02785
C          1.52964       -3.99421       -1.25458
N          0.33664       -4.75804       -1.44210
O         -0.72029       -4.14603       -1.63722
O          0.46458       -5.98978       -1.39646
O          1.39880       -2.64232       -1.29920
H          2.25328       -0.20128       -1.90652
H          3.80450       -0.33267       -1.05206
H          4.61875       -3.04171       -0.71886
H          3.20674       -5.38039       -0.95165
