16

N         -2.10018        2.13340       -0.02003
C         -1.15615        1.46069       -0.01558
C          0.03903        0.66029       -0.00783
C          1.27139        1.33394       -0.01935
C          2.46552        0.62111       -0.00953
C          2.43698       -0.77093        0.01519
C          1.20716       -1.46266        0.02724
N          1.26828       -2.93654        0.05903
O          0.21306       -3.57166        0.11771
O          2.39073       -3.45982        0.03008
C         -0.00950       -0.75103        0.01243
C         -1.30096       -1.38377        0.01005
N         -2.36965       -1.83327        0.00249
H          1.30413        2.42421       -0.03640
H          3.41829        1.14848       -0.01966
H          3.38797       -1.30488        0.02518
