30

C          1.20975        0.24088       -0.72703
C          0.89892       -0.65089        0.46696
C          1.90701       -0.44691        1.59736
S         -0.82221       -0.56171        1.10327
C         -1.37654        1.08744        0.72263
N         -2.13430        1.15032       -0.40128
C         -2.75385        2.31308       -0.69031
C         -2.65104        3.44765        0.08653
C         -1.85576        3.38501        1.22399
C         -1.19861        2.19064        1.56981
C         -0.35041        2.18517        2.81552
C         -1.09917        2.10082        4.14285
C         -1.68325        0.73574        4.42896
F         -0.74235       -0.22799        4.34760
F         -2.17988        0.70462        5.68794
F         -2.69298        0.43200        3.59296
H          1.14228        1.30457       -0.47763
H          0.54005        0.03049       -1.56672
H          2.23407        0.05768       -1.07243
H          1.00466       -1.69140        0.13726
H          2.10830        0.61288        1.77996
H          1.58000       -0.90977        2.53565
H          2.86562       -0.90623        1.33145
H         -3.36657        2.30103       -1.58772
H         -3.17809        4.35614       -0.18306
H         -1.75690        4.27156        1.84664
H          0.40444        1.40212        2.77834
H          0.23125        3.11835        2.81255
H         -0.38574        2.33247        4.94348
H         -1.88924        2.85749        4.19396
