23

C          1.05747       -0.05138        0.02901
C          0.47298        0.10390        1.40552
C          0.06123       -1.04368        2.10299
C         -0.49073       -0.96695        3.39374
C         -0.87676       -2.23749        4.09950
C         -0.68707        0.28990        3.98240
N         -1.13957        0.42135        5.30589
C         -0.20739        1.42567        3.31706
C          0.36373        1.35450        2.03324
C          0.80315        2.63972        1.38734
H          0.53727        0.59707       -0.68327
H          0.95690       -1.07850       -0.33788
H          2.12379        0.19556        0.04121
H          0.18261       -2.02009        1.63672
H         -0.38134       -2.29945        5.07389
H         -1.96192       -2.27789        4.23782
H         -0.58036       -3.12329        3.52768
H         -1.76164       -0.32467        5.59776
H         -1.52756        1.33705        5.50801
H         -0.28055        2.39490        3.80618
H         -0.07291        3.21822        1.07719
H          1.39091        3.23537        2.09441
H          1.43504        2.47802        0.51028
