29

C          1.16396        0.07731       -0.40708
C          0.61894        1.27452        0.37174
C          0.87575        2.56052       -0.42194
C         -0.88318        1.15127        0.68395
C         -1.35382       -0.09013        1.46080
C         -1.05962       -0.19028        2.98462
C         -1.57191        1.04789        3.73799
C         -1.81151       -1.42908        3.52124
C          0.43265       -0.38553        3.29078
H          0.61999       -0.06566       -1.34701
H          1.09275       -0.84713        0.17239
H          2.22220        0.22352       -0.64956
H          1.18207        1.36670        1.30266
H          0.36520        2.54004       -1.39092
H          0.52127        3.43669        0.13121
H          1.94695        2.69514       -0.60646
H         -1.22457        2.05663        1.19855
H         -1.42146        1.14591       -0.27492
H         -2.44716       -0.11712        1.34098
H         -0.99594       -0.99687        0.95874
H         -2.63488        1.22159        3.53729
H         -1.45401        0.92633        4.82106
H         -1.02197        1.95102        3.45391
H         -1.46895       -2.34386        3.02424
H         -1.65315       -1.55662        4.59832
H         -2.89130       -1.34156        3.35600
H          0.87798       -1.14531        2.64032
H          0.99860        0.54234        3.18154
H          0.58237       -0.71281        4.32662
