31

C          0.80298        0.19075        0.33892
C          0.08377       -0.75786        0.95625
C         -1.39478       -0.93543        0.82834
O         -1.71034       -2.20845        0.28129
P         -1.13367       -2.41442       -1.33671
O          0.12773       -3.12759       -0.80746
O         -2.27942       -3.59291       -1.59847
C         -3.11623       -4.15314       -0.59817
C         -2.37124       -4.90015        0.47257
C         -2.51906       -4.66589        1.78634
C         -0.52366       -2.63228       -3.04824
C         -0.36166       -3.89417       -3.64670
C          0.15294       -4.01056       -4.93803
C          0.52457       -2.86812       -5.64357
C          0.37984       -1.60939       -5.06105
C         -0.14303       -1.48985       -3.77133
H          0.35096        0.94100       -0.29952
H          1.88362        0.21475        0.45329
H          0.60171       -1.50043        1.56204
H         -1.85177       -0.87595        1.82092
H         -1.85058       -0.15990        0.20401
H         -3.77570       -3.37632       -0.19560
H         -3.76722       -4.87380       -1.10490
H         -1.64788       -5.64196        0.14629
H         -1.92312       -5.19587        2.52221
H         -3.19614       -3.89955        2.15300
H         -0.61846       -4.79014       -3.08508
H          0.27897       -4.99386       -5.38339
H          0.94144       -2.96133       -6.64302
H          0.69008       -0.72285       -5.60816
H         -0.22597       -0.50475       -3.32029
