27

C          0.93216       -0.02570       -0.00686
O          0.38841        1.19318        0.49290
C          0.79342        1.50401        1.76234
C          2.10806        1.39775        2.20787
C          2.43321        1.77101        3.51516
C          1.45128        2.26185        4.39111
C          1.76778        2.63603        5.71170
C          0.78344        3.12761        6.57762
C          1.05212        3.54275        7.99101
C          2.43654        3.47001        8.58400
O          0.11757        3.95197        8.68295
C         -0.53205        3.24244        6.10764
C         -0.85974        2.87784        4.79930
C          0.12205        2.38621        3.92971
C         -0.18828        2.01571        2.61153
H          0.41587       -0.26073       -0.94266
H          0.75631       -0.85163        0.69133
H          1.99765        0.07258       -0.23484
H          2.89990        1.05287        1.55111
H          3.46773        1.68217        3.84034
H          2.79783        2.52936        6.03245
H          2.72596        4.47135        8.91648
H          2.41331        2.79266        9.44273
H          3.20368        3.11546        7.90011
H         -1.31820        3.62011        6.76025
H         -1.89101        2.98089        4.46755
H         -1.20497        2.11340        2.23738
