23

C          0.72486        0.23046       -0.29019
C          0.17529        1.31522        0.59868
O         -0.73846        2.04652        0.21019
C          0.76888        1.48484        1.98408
C          0.36291        0.37943        2.95857
C          0.98843       -0.97592        2.71808
C          0.19716       -2.13017        2.81847
C          0.74057       -3.39119        2.56601
C          2.08290       -3.51545        2.21744
C          2.88912       -2.38226        2.15059
C          2.35053       -1.12222        2.41860
H          0.45984        0.44145       -1.32993
H          0.29846       -0.73436       -0.00974
H          1.81509        0.20401       -0.22035
H          1.85280        1.60270        1.89394
H          0.39318        2.44025        2.37336
H          0.62791        0.68659        3.97803
H         -0.73067        0.28375        2.93452
H         -0.85532       -2.05640        3.08562
H          0.11369       -4.27636        2.63735
H          2.50237       -4.49547        2.00638
H          3.93974       -2.47856        1.88874
H          3.00961       -0.25912        2.37349
