37

C          0.54975       -0.11355        0.37997
C          0.34069        0.77539        1.59495
O          1.01447        2.03236        1.40761
C          2.22926        2.17773        2.00686
O          2.74458        1.33539        2.73323
C          2.91046        3.50172        1.67898
N          2.38013        4.19028        0.49459
C          2.80625        3.98062       -0.70595
C          3.79660        2.95087       -1.13892
C          4.90534        3.30433       -1.91318
C          5.78698        2.31357       -2.35912
C          5.57109        0.97518       -2.02643
C          4.46116        0.62030       -1.26865
C          3.57078        1.60632       -0.85013
C          2.25869        4.86096       -1.77894
C          1.72072        4.30745       -2.94468
C          1.22860        5.14767       -3.94430
C          1.28109        6.53336       -3.78270
C          1.81281        7.08455       -2.61589
C          2.29387        6.24917       -1.60690
H          0.36988        0.44174       -0.54713
H         -0.11334       -0.98228        0.40686
H          1.57976       -0.48298        0.34345
H         -0.72501        0.99820        1.70246
H          0.65945        0.26122        2.50822
H          2.75112        4.15876        2.54171
H          3.98911        3.33784        1.58866
H          5.08782        4.34105       -2.18335
H          6.64370        2.58338       -2.97136
H          6.25996        0.20633       -2.36704
H          4.27548       -0.42001       -1.01252
H          2.68011        1.31000       -0.32243
H          1.66546        3.23022       -3.07325
H          0.79934        4.72229       -4.84780
H          0.89910        7.18517       -4.56480
H          1.84807        8.16390       -2.49089
H          2.70172        6.67781       -0.69477
