13

C          0.90632        0.03236       -0.02397
N          0.40694       -1.33485       -0.16595
C         -1.05528       -1.34939       -0.14519
C          0.90632       -1.93527       -1.40244
H          0.56683        0.46951        0.92173
H          0.57568        0.68204       -0.84258
H          2.00171        0.04095        0.00207
H         -1.48780       -0.77147       -0.97011
H         -1.43064       -2.37680       -0.21007
H         -1.43063       -0.93750        0.79827
H          0.57568       -1.38779       -2.29265
H          2.00171       -1.96267       -1.40162
H          0.56683       -2.97340       -1.49031
