18

C          1.02206        0.04945        0.12064
C          0.56186        0.79025       -1.11903
C          1.01342        0.08848       -2.38511
O          0.20746       -0.53996       -3.07391
C          2.47930        0.08468       -2.72761
C          3.12359        1.43262       -2.63826
O          3.90212        1.74066       -1.74421
C          2.71800        2.44083       -3.72281
O          1.92269        2.19375       -4.60600
O          3.31317        3.62902       -3.59770
H          0.68951       -0.99367        0.10084
H          0.61606        0.52277        1.01989
H          2.11360        0.04968        0.20170
H         -0.53289        0.84306       -1.13299
H          0.92563        1.82202       -1.11960
H          2.99382       -0.60450       -2.04974
H          2.61940       -0.30263       -3.74263
H          2.97554        4.17384       -4.33774
