28

C          2.47757       -0.21209        0.31761
C          0.97874       -0.09666        0.23515
C          0.22613       -1.28113        0.32116
C         -1.16434       -1.25915        0.22202
C         -1.82557       -0.05223        0.03111
C         -1.09431        1.12944       -0.08219
C          0.31142        1.12605        0.00135
C          1.04353        2.44368       -0.18276
C          1.88102        2.59859       -1.43881
C          2.78081        3.67526       -1.51450
C          3.58575        3.85754       -2.64104
C          3.50297        2.96849       -3.70876
C          2.60009        1.90934       -3.65994
C          1.78418        1.73553       -2.54000
H          2.76067       -0.95086        1.07544
H          2.88129       -0.53023       -0.64884
H          2.95517        0.72687        0.60781
H          0.72839       -2.23633        0.46121
H         -1.72883       -2.18499        0.29097
H         -2.90957       -0.02960       -0.04097
H         -1.63172        2.06122       -0.24793
H          1.67701        2.60047        0.70029
H          0.31750        3.26796       -0.17409
H          2.86130        4.37938       -0.68924
H          4.28003        4.69290       -2.68248
H          4.13721        3.10161       -4.58077
H          2.52931        1.21443       -4.49211
H          1.08400        0.90248       -2.53684
