26

C          1.18872       -0.10059        0.16619
C          0.67713       -0.50495        1.55730
C          1.23828        0.49151        2.58301
C         -0.87234       -0.53600        1.62289
N         -1.46286       -1.46560        0.62824
C         -2.92641       -1.37434        0.51985
C         -3.49196       -0.00717        0.12616
C         -2.98530        0.40464       -1.24647
N         -2.56498        0.74628       -2.38517
C         -1.38278       -0.90188        3.02415
O         -2.26743       -0.30598        3.62527
O         -0.85577       -2.03175        3.53345
H          0.74481        0.84732       -0.15830
H          0.95949       -0.86038       -0.58683
H          2.27708        0.02222        0.17113
H          1.07911       -1.49835        1.79345
H          0.84891        1.50046        2.40553
H          0.97904        0.20397        3.60641
H          2.33074        0.53707        2.52451
H         -1.20680        0.48784        1.41900
H         -1.04480       -1.30749       -0.28865
H         -3.23852       -2.11425       -0.22873
H         -3.39032       -1.70055        1.45777
H         -4.58538       -0.07329        0.07817
H         -3.25566        0.76909        0.85957
H         -1.36332       -2.18843        4.35539
