37

O          0.83960       -2.01400       -0.07834
C          1.86918       -1.38225        0.06407
O          2.18819       -0.69695        1.18220
C          2.90939       -1.27317       -0.97723
C          4.21772       -1.66311       -0.64662
C          5.21724       -1.65861       -1.62080
C          4.91467       -1.28501       -2.92911
C          3.61324       -0.90728       -3.26551
C          2.60481       -0.88654       -2.28942
C          1.25565       -0.45676       -2.72813
O          0.80379       -0.89996       -3.77992
C          0.48297        0.55087       -1.96256
C         -0.90247        0.40348       -1.87495
C         -1.65614        1.32020       -1.13720
C         -1.04431        2.40641       -0.48963
C         -1.83837        3.35226        0.31029
C         -2.65858        2.89681        1.35634
C         -3.41179        3.78969        2.12269
C         -3.35775        5.15492        1.85448
C         -2.55153        5.62741        0.82167
C         -1.79773        4.73302        0.05660
C          0.34714        2.55832       -0.61942
C          1.10929        1.64170       -1.35183
H          2.99866       -0.15665        1.12777
H          4.45663       -2.01260        0.35631
H          6.22737       -1.97456       -1.36787
H          5.68839       -1.30409       -3.69429
H          3.38285       -0.63389       -4.29480
H         -1.39573       -0.43641       -2.36017
H         -2.73365        1.17989       -1.07131
H         -2.70650        1.83427        1.58887
H         -4.03801        3.41634        2.92878
H         -3.94481        5.84969        2.44919
H         -2.51123        6.69210        0.60727
H         -1.18463        5.12178       -0.75375
H          0.84732        3.39391       -0.13303
H          2.17911        1.80228       -1.44400
