19

C          0.99550       -0.21278        0.01719
C          0.48647        0.39068        1.31722
O          1.15878        1.61957        1.54598
C         -1.06400        0.41080        1.35841
O         -1.64832       -0.38595        2.10571
N         -1.77675        1.26280        0.52314
C         -1.22014        2.40289       -0.18779
C         -3.22799        1.20920        0.59889
H          0.79114        0.43333       -0.84127
H          0.53826       -1.18851       -0.17262
H          2.08311       -0.33700        0.06279
H          0.79305       -0.28275        2.12933
H          1.42662        1.62729        2.48144
H         -1.59516        2.38462       -1.21607
H         -1.56009        3.31984        0.30313
H         -0.13442        2.40679       -0.22390
H         -3.56649        0.16835        0.59097
H         -3.55219        1.68253        1.53068
H         -3.67448        1.72976       -0.25361
