26

O         -2.31192        0.32256       -0.00822
C         -1.12649        0.04654       -0.00776
C         -0.62491       -1.33121        0.00763
C          0.70638       -1.27842        0.00357
C          1.09622        0.13515       -0.01471
O          2.25424        0.51087       -0.02249
N         -0.04588        0.86977       -0.02090
C         -0.08185        2.33063       -0.04140
C         -0.75146        2.86101       -1.31893
C         -0.82998        4.38563       -1.32939
C         -1.51459        4.91916       -0.07504
C         -0.82192        4.42210        1.18982
C         -0.74563        2.89768        1.22327
H         -1.26574       -2.19470        0.01932
H          1.41207       -2.08970        0.01121
H          0.95921        2.68135       -0.04880
H         -0.19393        2.51777       -2.19910
H         -1.76532        2.45541       -1.41825
H         -1.37724        4.71926       -2.21827
H          0.18137        4.80422       -1.40074
H         -2.56418        4.59975       -0.06702
H         -1.51363        6.01468       -0.09096
H         -1.36250        4.78262        2.07224
H          0.19048        4.84107        1.24171
H         -1.75956        2.49641        1.33823
H         -0.18484        2.57916        2.11062
