31

O          1.12935        0.00502       -0.55241
C          2.24780       -0.01300       -0.07462
O          2.97717       -1.12396        0.13936
C          2.95633        1.22074        0.29635
C          4.20550        1.48640       -0.27886
C          4.85861        2.69503       -0.01103
O          6.07855        2.84886       -0.63558
C          6.96252        3.75950       -0.10879
C          7.18559        4.92657       -0.84326
C          8.10420        5.87353       -0.38615
C          8.81689        5.65924        0.80461
C          9.83104        6.67081        1.28484
F         11.07078        6.43771        0.77667
F          9.51286        7.94767        0.93593
F          9.97217        6.67825        2.63876
C          8.61005        4.46463        1.51632
C          7.69285        3.51414        1.05903
Cl         7.51336        2.05042        1.95558
C          4.24759        3.65815        0.80209
C          2.99735        3.40252        1.37291
C          2.36185        2.18134        1.11423
N          1.10545        1.90509        1.78440
O          0.21884        2.76387        1.69580
O          1.05840        0.87838        2.47428
H          3.80006       -1.00053        0.65065
H          4.66556        0.77017       -0.95786
H          6.64545        5.09741       -1.77189
H          8.26804        6.78119       -0.96739
H          9.17658        4.27423        2.42753
H          4.72283        4.61578        1.00041
H          2.53257        4.14987        2.01408
