19

O          0.95856       -0.04496       -0.09011
C          2.17421        0.00430        0.02872
O          2.76384        0.60187        1.07853
C          3.06068       -0.45356       -1.07263
C          2.59191       -0.17319       -2.37065
C          3.29706       -0.59752       -3.49691
C          4.48070       -1.31283       -3.34381
C          4.95424       -1.60108       -2.06265
O          6.14740       -2.25909       -1.93484
C          4.24489       -1.18968       -0.92094
C          4.78238       -1.48701        0.41080
O          4.92128       -0.64398        1.28333
O          5.05515       -2.78453        0.59989
H          3.73517        0.47348        1.18420
H          1.66136        0.37955       -2.50546
H          2.92026       -0.36713       -4.49121
H          5.02603       -1.62554       -4.23017
H          6.42210       -2.60938       -2.79915
H          5.45742       -2.84837        1.49054
