18

Br         1.12931        0.33754        0.58163
C          2.99491        0.17413        0.03870
C          3.45243       -1.27920        0.04693
C          3.00179       -2.19454       -1.07345
C          2.24200       -1.77603       -2.17345
C          1.87644       -2.68071       -3.17509
C          2.27130       -4.01340       -3.09733
C          3.03275       -4.44548       -2.01602
C          3.39427       -3.54340       -1.01359
H          3.10471        0.66175       -0.93317
H          3.55394        0.75061        0.78222
H          4.55028       -1.26976        0.01540
H          3.16629       -1.74205        1.00083
H          1.91137       -0.74693       -2.27838
H          1.27965       -2.34102       -4.01804
H          1.98548       -4.71320       -3.87775
H          3.34544       -5.48409       -1.95099
H          3.99090       -3.90138       -0.17643
