23

C          1.73880       -0.19834        0.47765
C          1.12616        1.09432        0.04027
O          0.08495        1.15782       -0.60169
O          1.81725        2.14835        0.53836
C          1.17714        3.43793        0.58150
C          1.09691        4.17774       -0.75834
C         -0.19418        3.95776       -1.55344
O         -1.29703        4.14516       -0.65977
C         -2.30246        3.24915       -0.84605
C         -2.53984        2.47743        0.41795
O         -2.93043        3.11655       -1.88554
H          1.46296       -0.98723       -0.22809
H          1.36011       -0.45213        1.47160
H          2.82822       -0.12333        0.49596
H          0.21920        3.36413        1.10381
H          1.81397        4.03469        1.24583
H          1.12674        5.24993       -0.52142
H          1.96636        3.95027       -1.38216
H         -0.26088        4.70042       -2.35643
H         -0.20789        2.97131       -2.02670
H         -3.06512        3.09339        1.14788
H         -3.11192        1.57460        0.19309
H         -1.58855        2.15157        0.84254
