28

C          1.41480        0.21650        0.06366
C          0.53834        1.41794       -0.29434
C          0.90812        1.93747       -1.68348
C         -0.95878        1.08038       -0.23889
O         -1.36922        0.78190        1.10393
C         -1.54043       -0.52909        1.39989
O         -1.29261       -1.49055        0.69070
C         -1.94386       -0.64210        2.80897
C         -1.06129       -1.26993        3.69589
C         -1.40860       -1.40247        5.04030
C         -2.63842       -0.92119        5.49255
C         -3.52750       -0.30973        4.60390
C         -3.18017       -0.17245        3.25935
O         -4.06026        0.39743        2.38343
H          1.20792       -0.63527       -0.59316
H          1.25045       -0.09988        1.09820
H          2.47668        0.46661       -0.03457
H          0.74640        2.20549        0.44107
H          0.71397        1.18368       -2.45423
H          0.32823        2.83287       -1.93084
H          1.96916        2.20467       -1.73077
H         -1.54232        1.95575       -0.54672
H         -1.21619        0.27338       -0.93572
H         -0.10703       -1.65041        3.33898
H         -0.72295       -1.88351        5.73382
H         -2.90823       -1.02962        6.54072
H         -4.48351        0.04538        4.97720
H         -4.87222        0.64175        2.85723
