23

O          0.93838        0.08179        0.04589
C          2.16745        0.06091        0.05484
O          2.84417        1.14063       -0.40801
C          2.95668       -1.14920        0.57357
F          2.61395       -1.41399        1.87063
F          2.61395       -2.27118       -0.12902
C          4.45293       -0.95006        0.48821
F          4.79863       -0.67563       -0.80334
F          4.79863        0.17458        1.18002
C          5.21974       -2.15471        1.00461
F          4.87646       -2.40611        2.29561
F          4.87646       -3.26307        0.29649
C          6.71703       -1.92391        0.90567
F          7.05587       -1.66288       -0.38666
F          7.05587       -0.80794        1.60772
C          7.48954       -3.11805        1.41756
F          7.15837       -3.37942        2.71349
F          7.15837       -4.23685        0.71327
C          8.97732       -2.85099        1.30308
F          9.36168       -2.63110        0.02418
F          9.36168       -1.77313        2.02567
F          9.70345       -3.90360        1.75430
H          3.82288        1.14565       -0.41016
