56

C          1.24996       -1.77529        1.54597
C          0.27340       -0.76407        2.13175
C          0.94793        0.58153        2.38887
O          0.30663        1.62631        1.67879
C          0.98432        2.29657        0.59662
C          2.58546        2.41503        0.61661
O          3.30076        2.50501       -0.37820
O          3.08273        2.49703        1.88910
C          4.51400        2.67105        2.01209
C          5.28629        1.38695        1.69319
C          5.00806        0.28168        2.70997
N          5.24227        0.72163        4.09006
C          4.88979       -0.35209        5.02340
C          4.49125        1.94085        4.42220
C          4.80362        3.08191        3.45358
C          0.51873        1.54055       -0.69231
C         -0.73480        1.76560       -1.29521
C         -1.18217        1.00084       -2.38042
C         -0.38996       -0.01699       -2.89526
C          0.85550       -0.26093       -2.33280
C          1.30014        0.50537       -1.24848
C          0.42251        3.76133        0.68622
C          1.20420        4.89727        0.39545
C          0.68485        6.19068        0.52397
C         -0.63826        6.38317        0.90701
C         -1.43996        5.28369        1.18674
C         -0.90974        3.99426        1.09990
H          1.75993       -1.37924        0.66661
H          0.72453       -2.68685        1.24831
H          2.01817       -2.04509        2.27804
H         -0.59476       -0.65478        1.47413
H         -0.08798       -1.17218        3.08398
H          0.82838        0.82892        3.45042
H          2.01227        0.51879        2.19404
H          4.82991        3.48273        1.34506
H          6.36165        1.60738        1.68678
H          5.03306        1.01121        0.69623
H          5.66989       -0.56296        2.48088
H          3.98507       -0.08503        2.58605
H          5.13652       -0.06564        6.05126
H          3.82167       -0.59832        4.98119
H          5.45893       -1.26165        4.80176
H          3.41085        1.74643        4.42767
H          4.76426        2.27054        5.43216
H          5.85752        3.37218        3.55125
H          4.19510        3.95261        3.72419
H         -1.40840        2.53438       -0.93269
H         -2.15919        1.19986       -2.81387
H         -0.74263       -0.61729       -3.72919
H          1.48429       -1.05403       -2.72961
H          2.28016        0.26216       -0.84439
H          2.24041        4.81596        0.07525
H          1.31980        7.04952        0.32024
H         -1.04239        7.38827        0.98860
H         -2.47741        5.42396        1.47826
H         -1.55835        3.15434        1.34785
