38

C          0.95727       -0.07571        0.36606
C          0.96119        1.07187       -0.62979
C          1.43110        0.66367       -2.02796
C          0.56511       -0.35931       -2.78135
C         -0.94712       -0.09493       -2.82682
C         -1.51396        0.79366       -3.95625
C         -1.42777        0.10789       -5.32654
C         -2.98654        1.14835       -3.62267
C         -3.21252        2.55533       -4.16355
C         -1.90001        3.30172       -3.89486
C         -1.80236        3.83040       -2.46333
C         -1.68840        4.42684       -4.90489
C         -0.89080        2.18150       -4.08733
O          0.28117        2.38266       -4.39061
H          0.28601       -0.88086        0.05476
H          0.62220        0.28012        1.34580
H          1.96382       -0.48923        0.48506
H         -0.03091        1.53226       -0.67200
H          1.63512        1.85167       -0.25429
H          1.53940        1.57267       -2.62210
H          2.44550        0.25105       -1.94905
H          0.96308       -0.48549       -3.79412
H          0.71151       -1.33003       -2.28908
H         -1.43523       -1.07615       -2.92352
H         -1.27671        0.27780       -1.85259
H         -0.39037       -0.10032       -5.60786
H         -1.97690       -0.83973       -5.33120
H         -1.84740        0.74003       -6.11814
H         -3.69775        0.43503       -4.05326
H         -3.16265        1.15492       -2.53988
H         -4.07347        3.03640       -3.68727
H         -3.42127        2.49951       -5.23935
H         -0.82000        4.28122       -2.27970
H         -2.56474        4.59351       -2.27324
H         -1.92931        3.03591       -1.72041
H         -1.65502        4.04064       -5.93024
H         -2.49434        5.16602       -4.84651
H         -0.73935        4.94546       -4.72746
