19

O          0.87191       -0.07431       -0.28558
C          2.08839       -0.00822       -0.23648
O          2.86856       -0.98762        0.25900
C          2.84254        1.20019       -0.61636
C          3.98362        1.04389       -1.42284
C          4.71665        2.15955       -1.83143
C          4.31402        3.43658       -1.44739
C          3.17242        3.60194       -0.66248
C          2.42666        2.48448       -0.25394
S          0.99134        2.79581        0.74619
O          1.34666        3.87311        1.64618
O         -0.13075        2.90224       -0.15820
O          0.75267        1.49017        1.65915
H          3.80514       -0.75150        0.40823
H          4.29355        0.05813       -1.76656
H          5.59513        2.03573       -2.46198
H          4.88208        4.30757       -1.76904
H          2.86311        4.60722       -0.37657
H          0.24769        0.82909        1.11720
