16

N          1.02373        0.00626       -0.22970
C          0.21139       -1.11704       -0.49501
C         -0.91229       -0.94137       -1.30179
C         -1.63456       -2.05665       -1.66939
Cl        -3.03588       -1.91649       -2.64548
N         -1.31664       -3.31223       -1.32052
C         -0.18684       -3.49542       -0.57407
C          0.06099       -4.94795       -0.28013
O         -0.59133       -5.87824       -0.72685
O          1.07115       -5.21562        0.56321
C          0.61956       -2.42921       -0.16064
Cl         2.08534       -2.59279        0.75190
H          0.52806        0.88917       -0.14529
H          1.68386       -0.14502        0.53305
H         -1.21114        0.04327       -1.64360
H          1.06876       -6.19462        0.62556
