30

N          0.50902       -1.08581       -0.50616
C          0.22020       -1.80086        0.73461
C          1.13906       -1.44230        1.89806
C          0.62480       -0.30083        2.74721
O         -0.13365       -0.51139        3.69446
N          0.98544        0.98114        2.47887
C          1.84477        1.53327        1.42602
C          1.04570        2.44804        0.47847
C          0.60609        3.74067        1.08665
C         -0.27048        4.04534        2.10726
N         -0.33495        5.39839        2.30830
C          0.46276        5.92424        1.40962
N          1.05604        4.96240        0.64440
C          3.05413        2.29885        1.96810
O          3.95615        2.76347        1.28463
O          3.02805        2.50650        3.29916
H          0.16538       -0.13209       -0.45190
H          1.50949       -1.06101       -0.68989
H         -0.83275       -1.65248        0.99703
H          0.34491       -2.86756        0.51613
H          1.19063       -2.31007        2.57052
H          2.17280       -1.27243        1.58402
H          0.69255        1.63076        3.20210
H          2.25340        0.70122        0.84859
H          1.65682        2.65783       -0.40910
H          0.15069        1.92420        0.12350
H         -0.85690        3.36692        2.71507
H          0.64659        6.98046        1.26454
H          1.70528        5.13050       -0.11282
H          3.80083        3.08042        3.48443
