27

C          0.80659       -0.26309        0.15182
C          0.47363        0.91448       -0.75573
N          0.97625        0.69050       -2.11251
C          2.20675        0.82043       -2.44020
O          3.18065        1.21104       -1.59343
C          2.72680        0.62026       -3.85240
Br         2.14602       -1.17648       -4.39079
C          2.21953        1.69954       -4.82390
C          2.63361        3.09838       -4.34169
C          2.75718        1.50658       -6.24824
C         -1.03996        1.09376       -0.83006
O         -1.65404        2.09391       -0.48689
O         -1.70218        0.02505       -1.31865
H          0.44771       -1.20915       -0.26855
H          0.34193       -0.13836        1.13594
H          1.88629       -0.36212        0.29965
H          0.87450        1.84543       -0.33737
H          2.85313        1.36560       -0.69777
H          3.82109        0.57110       -3.84463
H          1.12282        1.67365       -4.86862
H          3.72217        3.17508       -4.24252
H          2.30435        3.86847       -5.04766
H          2.18594        3.33779       -3.37204
H          2.37022        0.59312       -6.70876
H          2.45419        2.33898       -6.89328
H          3.85136        1.45701       -6.25580
H         -2.63601        0.31374       -1.35744
