41

C         -0.97678       -0.72010        0.33414
O         -1.25367        0.63874        0.00608
C         -0.84238        1.56969        0.96801
C         -1.55784        2.71235        0.99762
C         -1.03340        3.66785       -0.05171
O         -1.55305        4.77441       -0.16990
C          0.10883        3.20019       -0.94742
C          1.21463        2.38493       -0.21080
C          1.80410        1.36182       -1.19035
C          0.68889        1.74549        1.09953
O          1.33068        0.48813        1.46137
C          1.24288        0.41332        2.83675
C          1.23838       -0.75364        3.57938
Cl         1.49487       -2.27082        2.79858
C          0.93947       -0.66919        4.95239
O          0.85831       -1.85568        5.63874
C          0.12934       -1.85307        6.86154
C          0.72911        0.59397        5.55278
C          0.78283        1.77308        4.79885
O          0.53692        3.02805        5.26362
C          0.07813        3.16060        6.60338
C          1.04945        1.63490        3.44865
C          0.99237        2.57778        2.35284
O          1.08843        3.78430        2.44371
H         -1.65101       -1.35075       -0.25134
H         -1.14325       -0.93021        1.39486
H          0.04305       -0.97967        0.03664
H         -1.58146        3.32793        1.90229
H         -0.35503        2.60467       -1.74563
H          0.56061        4.07499       -1.42783
H          2.02487        3.08300        0.03795
H          2.15859        1.86067       -2.09933
H          2.65440        0.83255       -0.75030
H          1.05962        0.61950       -1.49567
H          0.70677       -1.36503        7.65252
H         -0.85518       -1.38564        6.74598
H         -0.03152       -2.89384        7.15869
H          0.50923        0.64751        6.61260
H         -0.87633        2.64181        6.74396
H          0.82914        2.80419        7.31560
H         -0.08775        4.22431        6.79864
