22

C          1.10726       -0.05329        0.01609
N          0.64447        1.15995        0.65881
C          1.12598        2.36942        0.14042
O          1.86604        2.45718       -0.83750
N          0.73186        3.51542        0.79222
C         -0.06019        3.59069        1.90576
O         -0.33493        4.63725        2.47817
C         -0.56664        2.29481        2.34544
N         -1.41065        2.05443        3.38721
C         -1.65838        0.68193        3.44037
O         -2.36629        0.10225        4.24550
N         -0.91482        0.13162        2.35759
C         -0.97067       -1.27122        2.07137
C         -0.23182        1.15697        1.72216
H          0.37849       -0.35218       -0.74300
H          1.26215       -0.84886        0.74776
H          2.07063        0.10907       -0.47890
H          1.09775        4.38262        0.42942
H         -1.79442        2.74574        4.01453
H         -0.19200       -1.78140        2.64512
H         -1.94171       -1.67076        2.38275
H         -0.85989       -1.46763        1.00460
