22

C          2.84519       -0.02118       -0.10505
N          1.44608       -0.01473        0.31374
C          0.74158       -1.20728       -0.19719
C         -0.76048       -1.19964        0.17010
N         -1.44642        0.01436       -0.31481
C         -2.84542        0.02077        0.10437
C         -0.74173        1.20670        0.19629
C          0.76012        1.19902       -0.17168
H          3.35794       -0.90697        0.28582
H          2.95442       -0.01332       -1.19558
H          3.37050        0.85097        0.29963
H          0.84217       -1.27716       -1.28895
H          1.19456       -2.10956        0.23115
H         -0.86239       -1.29167        1.26008
H         -1.22723       -2.08532       -0.27773
H         -3.37130       -0.85020       -0.30214
H         -2.95436        0.01053        1.19491
H         -3.35784        0.90772       -0.28432
H         -0.84190        1.27623        1.28811
H         -1.19482        2.10916       -0.23158
H          1.22699        2.08497        0.27549
H          0.86168        1.29044       -1.26175
