12

Cl         1.04303       -0.06098        0.08702
C          2.81769       -0.05795        0.06463
C          3.33041       -1.24083        0.82419
C          4.10603       -2.20289        0.29527
C          4.61573       -3.38768        1.05389
Cl         4.03101       -4.87906        0.28981
H          3.14157       -0.06141       -0.98032
H          3.16135        0.86883        0.53290
H          3.03720       -1.29896        1.87088
H          4.39792       -2.14560       -0.75183
H          5.70924       -3.40418        1.03740
H          4.28279       -3.38997        2.09599
