16

O          1.18510        0.30084        0.03415
C          2.37912        0.08247        0.04046
O          3.38259        1.01035        0.04921
C          4.69067        0.39854        0.05543
C          4.38968       -1.04682        0.04756
C          5.24032       -2.13843        0.04768
C          4.67043       -3.41701        0.04026
C          3.27354       -3.57767        0.03306
Cl         2.60483       -5.16326        0.02500
C          2.42554       -2.47313        0.03252
C          3.02057       -1.22433        0.03973
H          5.23161        0.71534       -0.84038
H          5.21915        0.70776        0.96130
H          6.31957       -2.01624        0.05343
H          5.31707       -4.29225        0.04026
H          1.34556       -2.57636        0.02687
