18

C          1.02621       -0.07713       -0.04939
C          0.60645        0.52969       -1.35370
C          0.12005       -0.26057       -2.39848
C         -0.24492        0.31664       -3.61765
C         -0.77154       -0.51191       -4.74966
C         -0.09914        1.69837       -3.77566
N          0.39314        2.49980       -2.76087
O          0.52273        3.75134       -2.92726
C          0.74362        1.90571       -1.56111
H          0.59223       -1.07377        0.08260
H          0.68616        0.54081        0.78824
H          2.11636       -0.16484       -0.01013
H          0.02268       -1.33689       -2.25980
H         -1.75691       -0.14779       -5.05805
H         -0.08674       -0.46381       -5.60231
H         -0.87935       -1.56277       -4.46164
H         -0.34272        2.25170       -4.67030
H          1.12129        2.61039       -0.83569
