27

O          1.19541        0.12714       -0.00551
C          2.42899        0.12571        0.02155
C          3.09652       -0.54509        1.15487
C          2.82841       -1.90932        1.34251
C          3.48221       -2.61319        2.35524
C          4.38657       -1.95148        3.18546
Cl         5.21640       -2.82796        4.41062
C          4.61949       -0.58520        3.03716
C          3.95956        0.12708        2.03220
Cl         4.22290        1.83292        1.96518
N          3.18526        0.78379       -0.93838
O          2.41641        1.61688       -1.79755
C          4.55672        0.69065       -1.27143
C          5.18893        1.78267       -1.88201
C          6.56037        1.75956       -2.14998
C          7.31232        0.62946       -1.84135
C          6.69003       -0.48278       -1.28277
C          5.32020       -0.45344       -1.00458
H          2.12377       -2.42487        0.69204
H          3.28625       -3.67463        2.48925
H          5.30910       -0.07507        3.70556
H          1.50235        1.37684       -1.53559
H          4.62452        2.68413       -2.11108
H          7.03968        2.63001       -2.59035
H          8.37973        0.61232       -2.04551
H          7.26861       -1.37784       -1.06767
H          4.86938       -1.36032       -0.61752
