50

C          0.68929       -0.17757       -0.00630
O          1.09172       -1.11693        0.99431
C          1.08506       -2.39227        0.49705
C         -0.03177       -3.18588        0.77946
C         -0.08749       -4.50030        0.31552
C          0.96265       -5.01365       -0.43668
C          2.07952       -4.22071       -0.71107
C          2.17319       -2.90661       -0.21725
C          3.45470       -2.12796       -0.43543
C          4.54411       -2.33176        0.65426
C          4.93765       -3.80522        0.80355
N          5.69867       -1.48750        0.28391
C          6.78128       -1.39387        1.27347
C          7.89109       -2.41628        0.95201
C          7.43467        0.01482        1.23898
C          6.72470        1.27324        1.70021
C          7.37044        2.49134        1.39105
C          6.85597        3.72180        1.80453
C          5.67812        3.76478        2.53895
C          5.02438        2.57686        2.86165
C          5.55526        1.34090        2.46511
O          4.85166        0.21448        2.78269
C          5.03711       -0.15187        4.14702
H         -0.21021        0.33947        0.34140
H          0.47802       -0.62713       -0.98490
H          1.48554        0.56357       -0.12498
H         -0.85139       -2.78149        1.36420
H         -0.94920       -5.12224        0.54491
H          0.92734       -6.03905       -0.79730
H          2.89990       -4.64767       -1.28216
H          3.85731       -2.39453       -1.42233
H          3.22116       -1.05876       -0.50897
H          4.13022       -1.99054        1.61018
H          5.40333       -4.18945       -0.11071
H          5.62645       -3.95041        1.63915
H          4.07641       -4.43544        1.03929
H          6.05779       -1.74415       -0.63224
H          6.42393       -1.59884        2.28649
H          8.15016       -2.40940       -0.11266
H          8.80589       -2.19676        1.51378
H          7.60442       -3.43542        1.21848
H          8.34144       -0.03367        1.86006
H          7.78146        0.19105        0.20991
H          8.29639        2.48197        0.81830
H          7.37547        4.64112        1.54713
H          5.26535        4.71895        2.85411
H          4.09180        2.61209        3.41739
H          4.75305       -1.20457        4.24523
H          6.08335       -0.05708        4.45936
H          4.38533        0.43901        4.79686
