26

C          0.90439        0.18118       -0.09641
C          0.62710        0.80111        1.25824
C         -0.13636        1.91271        1.32236
C         -0.63684        2.77736        2.41762
C         -1.41682        3.88776        2.04244
C         -1.93956        4.77727        2.98853
C         -1.69074        4.58673        4.34696
C         -2.24119        5.54895        5.35617
C         -0.92913        3.48392        4.73638
C         -0.41997        2.58656        3.78396
C          1.28771        0.04555        2.37490
O          0.49461       -1.08598        2.70001
H          0.43816        0.73484       -0.91826
H          0.52263       -0.84433       -0.13155
H          1.98246        0.15957       -0.28893
H         -0.48929        2.27663        0.35354
H         -1.63639        4.08112        0.99375
H         -2.53997        5.61972        2.65254
H         -1.86684        6.55862        5.15808
H         -3.33507        5.55615        5.31374
H         -1.94555        5.27650        6.37462
H         -0.72210        3.30525        5.78966
H          0.13874        1.74523        4.16763
H          2.27598       -0.31202        2.06538
H          1.46363        0.63180        3.27317
H         -0.42947       -0.78232        2.72540
