55

C          1.03436        0.32336        0.28416
C          0.56245        0.03088        1.70972
C          1.44526        0.78900        2.70714
C         -0.91923        0.40630        1.93962
C         -1.95905       -0.31154        1.06415
C         -1.95549       -1.83317        1.16966
C         -2.43246       -2.42619        2.49601
C         -3.86464       -2.99351        2.53348
C         -4.37716       -3.98332        1.47331
C         -3.89781       -5.43972        1.29498
O         -3.50444       -6.23384        2.39670
C         -2.32353       -5.90098        3.09094
C         -0.92326       -6.13901        2.49243
C         -0.55737       -6.05062        0.99589
N         -1.04797       -4.85374        0.31929
C         -0.33107       -4.47377       -0.90169
C         -1.08284       -4.75652       -2.20962
C         -2.50728       -4.20451       -2.33413
N         -2.56553       -2.75184       -2.47884
H          0.86443        1.37150        0.01595
H          0.51625       -0.30658       -0.44503
H          2.10713        0.12235        0.18115
H          0.70622       -1.03783        1.90589
H          1.34872        1.87265        2.58112
H          1.16764        0.53958        3.73673
H          2.50045        0.52546        2.57564
H         -1.16605        0.23476        2.99374
H         -1.03705        1.48495        1.77316
H         -2.95847        0.06405        1.30950
H         -1.77924       -0.04418        0.01558
H         -2.54467       -2.24652        0.35173
H         -0.92441       -2.15321        0.99943
H         -1.72008       -3.20051        2.78253
H         -2.35590       -1.67655        3.29224
H         -4.04832       -3.42112        3.52655
H         -4.53244       -2.12182        2.47636
H         -5.45519       -4.06544        1.67947
H         -4.33789       -3.50382        0.48744
H         -4.76641       -5.97342        0.88220
H         -3.18230       -5.53705        0.48957
H         -2.40688       -4.89929        3.49898
H         -2.35820       -6.52069        3.99780
H         -0.24932       -5.46155        3.03841
H         -0.61107       -7.14324        2.81338
H          0.54091       -6.04566        0.96976
H         -0.88660       -6.95264        0.47539
H         -1.02824       -4.09514        0.97311
H         -0.13824       -3.39492       -0.84695
H          0.65733       -4.94184       -0.94945
H         -0.48267       -4.35059       -3.03597
H         -1.12144       -5.84102       -2.36649
H         -2.96825       -4.63829       -3.22856
H         -3.12280       -4.51365       -1.48708
H         -3.54544       -2.46363       -2.47867
H         -2.14637       -2.30762       -1.66707
