39

C          1.36621       -0.29788        0.16701
C          0.51421       -1.15227        1.09841
C          1.08643       -1.11182        2.52236
C         -1.02599       -0.93027        0.99252
O         -1.59829       -1.79132        1.98952
C         -3.01818       -1.84055        2.03069
C         -3.39351       -2.62949        3.30573
C         -4.31853       -3.75223        2.85185
C         -3.85405       -4.04430        1.43940
C         -3.62690       -2.65215        0.86941
O         -3.58993       -0.54553        2.14531
C         -3.17804        0.32052        1.10056
C         -1.64358        0.49854        1.08144
C         -1.32108        1.37424       -0.14358
C         -1.22601        1.24781        2.35692
H          1.46389        0.72712        0.53500
H          0.95543       -0.28305       -0.84693
H          2.38110       -0.70662        0.10023
H          0.66698       -2.19374        0.77534
H          1.04874       -0.11349        2.96115
H          0.55995       -1.80057        3.19037
H          2.13878       -1.41902        2.51453
H         -1.30578       -1.33745        0.01150
H         -2.50169       -3.06778        3.77142
H         -3.88756       -2.00861        4.06093
H         -5.35834       -3.40360        2.84566
H         -4.25722       -4.62906        3.50254
H         -4.59273       -4.61145        0.86635
H         -2.91533       -4.61080        1.45201
H         -4.59065       -2.22571        0.56408
H         -2.98757       -2.70766       -0.01499
H         -3.67827        1.28267        1.26238
H         -3.54787       -0.05989        0.14016
H         -1.96382        2.26268       -0.16905
H         -0.29420        1.74340       -0.14049
H         -1.48583        0.82577       -1.07765
H         -1.36779        0.63810        3.25513
H         -0.17801        1.55830        2.31157
H         -1.81543        2.16346        2.48510
