50

C         -2.00309        1.32228        1.36228
N         -0.73339        1.05704        0.72071
C          0.21709        2.16058        0.90047
C          1.57293        1.52608        0.67557
C          1.39901        0.18577        1.35549
C         -0.03888       -0.21693        0.99405
C         -0.57369       -1.25985        1.98987
C         -1.80968       -2.07630        1.59184
O         -1.56771       -3.17318        0.71208
C         -1.62739       -3.01848       -0.73233
C         -2.59053       -1.86916       -1.12371
C         -0.18226       -2.82288       -1.24296
C          0.88140       -3.53011       -0.64317
C          2.20687       -3.32873       -1.03284
C          2.50316       -2.40649       -2.03001
C          1.47308       -1.70911       -2.65310
C          0.14283       -1.92755       -2.27891
C         -2.17010       -4.37199       -1.28875
C         -2.94320       -4.45050       -2.46704
C         -3.36365       -5.68235       -2.98318
C         -3.00321       -6.86206       -2.34868
Cl        -3.48835       -8.37458       -3.00869
C         -2.24175       -6.82360       -1.18474
C         -1.84103       -5.58972       -0.65896
H         -1.93337        1.31728        2.45380
H         -2.38428        2.30243        1.05102
H         -2.76456        0.60663        1.04718
H          0.03012        2.97430        0.19283
H          0.16904        2.56381        1.92000
H          2.38994        2.11071        1.10750
H          1.76880        1.39057       -0.39525
H          1.51434        0.30316        2.44016
H          2.13622       -0.54455        1.00677
H          0.02815       -0.69146        0.02221
H          0.23315       -1.97461        2.20087
H         -0.78583       -0.75140        2.93920
H         -2.14651       -2.55844        2.51917
H         -2.66287       -1.47113        1.29106
H         -2.23882       -0.90107       -0.75965
H         -2.71030       -1.74252       -2.20333
H         -3.58880       -2.03347       -0.69929
H          0.68297       -4.23573        0.16104
H          3.00443       -3.88319       -0.54629
H          3.53535       -2.22992       -2.31887
H          1.70302       -0.97899       -3.42515
H         -0.62239       -1.34512       -2.78302
H         -3.22963       -3.56331       -3.02082
H         -3.96181       -5.70572       -3.89185
H         -1.94920       -7.74227       -0.68721
H         -1.24647       -5.58997        0.25367
