24

C          2.49947       -0.00325       -0.01073
C          0.99943       -0.01149       -0.00453
C          0.31043       -1.22868       -0.00726
C         -1.08292       -1.24869       -0.00476
C         -1.80012       -0.05221        0.00081
C         -1.13368        1.18167        0.00483
C         -1.89392        2.49641        0.01382
C         -2.74469        2.66226       -1.24790
C         -2.75167        2.64095        1.27360
C          0.27102        1.18649        0.00100
H          2.88309       -0.52819        0.87009
H          2.87483       -0.49404       -0.91446
H          2.89681        1.01682        0.00763
H          0.85747       -2.16855       -0.01157
H         -1.61212       -2.19775       -0.00713
H         -2.88671       -0.09293        0.00233
H         -1.16839        3.32070        0.02313
H         -3.52797        1.89973       -1.31811
H         -3.23361        3.64247       -1.25690
H         -2.12556        2.58847       -2.14895
H         -2.13790        2.54876        2.17664
H         -3.23834        3.62197        1.29804
H         -3.53729        1.87934        1.32519
H          0.80501        2.13483        0.00276
