22

Cl        -2.09855        0.03168        0.02077
C         -0.37864        0.01463        0.01328
C          0.30265       -1.19604        0.10209
C          1.70076       -1.20851        0.09867
C          2.43236       -0.01296       -0.00111
C          3.90468       -0.02114        0.00770
C          4.58058        0.53397        1.11200
C          5.97852        0.55144        1.17628
Cl         6.70939        1.25772        2.57278
C          6.72869        0.00879        0.13047
Cl         8.45587       -0.00688        0.13964
C          6.07983       -0.54414       -0.97464
C          4.68188       -0.55719       -1.03767
Cl         3.96388       -1.23168       -2.46086
C          1.72345        1.19751       -0.08601
C          0.32536        1.21225       -0.07931
H         -0.24438       -2.13244        0.17348
H          2.21727       -2.16402        0.17195
H          4.00492        0.95297        1.93710
H          6.66301       -0.96212       -1.79237
H          2.25787        2.14267       -0.16506
H         -0.20449        2.15856       -0.14850
