24

N          0.93588        0.20583        0.19844
C          0.46635        0.93472       -0.98432
C          0.97792        0.35394       -2.31181
C          0.48674       -1.03456       -2.58826
C          1.16657       -2.21021       -2.33105
N          0.37662       -3.25825       -2.71825
C         -0.80908       -2.79484       -3.23688
C         -1.90287       -3.49952       -3.75389
C         -2.98846       -2.75624       -4.22546
C         -2.97817       -1.36450       -4.17951
C         -1.87751       -0.67601       -3.65567
C         -0.76846       -1.40161       -3.17343
H          0.56279       -0.74476        0.15092
H          1.94772        0.09648        0.14450
H         -0.62922        0.95223       -0.97159
H          0.80431        1.97332       -0.89905
H          0.66282        1.01447       -3.12936
H          2.07551        0.36342       -2.31947
H          2.14392       -2.38786       -1.90257
H          0.62382       -4.23508       -2.64154
H         -1.91373       -4.58380       -3.79148
H         -3.85320       -3.27363       -4.63459
H         -3.83230       -0.80527       -4.55314
H         -1.88232        0.40926       -3.62498
