118

C          1.09698        0.04116       -0.46055
C          0.83413       -1.44425       -0.26639
C          1.28570       -1.95723        1.10365
C          0.60020       -1.28325        2.29637
C         -0.92473       -1.41031        2.29178
C         -1.41851       -2.85256        2.43730
C         -1.04565       -3.50721        3.77707
C         -1.45789       -2.69943        5.01765
C         -2.94405       -2.51262        5.02378
C         -3.72349       -2.98462        5.99947
C         -5.19321       -3.20200        5.80948
C         -5.48171       -4.70945        5.87627
C         -5.10430       -5.35141        7.22027
C         -5.75767       -4.65307        8.41522
C         -7.28570       -4.70908        8.35009
C         -7.82189       -6.14204        8.43158
C         -7.42732       -6.85279        9.72888
C         -7.89492       -6.09554       10.96982
C         -9.42075       -6.06629       11.07422
C        -10.03924       -7.42988       11.42098
C         -9.30354       -8.26949       12.48103
C         -9.18102       -7.63229       13.85019
O         -9.07276       -8.27160       14.88762
O         -9.22188       -6.28500       13.76192
C         -9.64365       -5.49806       14.87868
C        -11.16223       -5.31783       14.79451
C        -11.95157       -6.61329       15.00978
C        -11.67792       -7.25828       16.36763
C        -12.29152       -6.47385       17.52285
C        -13.81276       -6.61327       17.58335
C        -14.29260       -8.06718       17.72710
C        -13.61006       -8.85056       18.86000
C        -13.86732       -8.15293       20.15991
C        -14.64670       -8.67453       21.11066
C        -15.24471       -7.84411       22.20449
C        -16.77718       -7.88189       22.10312
C        -17.39148       -9.28338       22.24483
C        -16.95793      -10.02825       23.51057
C        -17.40231       -9.34560       24.80625
C        -18.92159       -9.29382       24.99633
C        -19.61310      -10.65981       24.99690
C        -19.11761      -11.57655       26.10477
H          0.51729        0.64958        0.24022
H          0.81342        0.34563       -1.47235
H          2.15803        0.26921       -0.31926
H         -0.23012       -1.65158       -0.42403
H          1.37072       -2.00250       -1.04193
H          1.12031       -3.04025        1.14616
H          2.36869       -1.81553        1.20035
H          1.00836       -1.70642        3.22168
H          0.86533       -0.22055        2.32308
H         -1.33236       -0.78836        3.09668
H         -1.34035       -0.98266        1.37343
H         -2.50762       -2.86308        2.30940
H         -1.03645       -3.47324        1.61972
H         -1.51888       -4.49821        3.81603
H          0.03394       -3.69019        3.81312
H         -1.13179       -3.25104        5.90879
H         -0.95487       -1.72933        5.05411
H         -3.41122       -2.10600        4.13131
H         -3.26395       -3.37036        6.90572
H         -5.75916       -2.64128        6.55908
H         -5.52589       -2.82878        4.83336
H         -6.54225       -4.88216        5.66090
H         -4.93154       -5.22707        5.07966
H         -5.37313       -6.41298        7.19718
H         -4.01720       -5.34750        7.35626
H         -5.38733       -5.10388        9.34205
H         -5.43831       -3.60715        8.47479
H         -7.70200       -4.09047        9.15207
H         -7.65266       -4.24315        7.43004
H         -8.91088       -6.11931        8.32384
H         -7.46879       -6.73486        7.58172
H         -7.83946       -7.86758        9.72233
H         -6.34058       -6.98304        9.77859
H         -7.43892       -6.54691       11.85628
H         -7.51390       -5.06936       10.97591
H         -9.71491       -5.31077       11.80945
H         -9.87643       -5.69714       10.14962
H        -11.07605       -7.26376       11.73771
H        -10.09620       -8.02569       10.50111
H         -9.87573       -9.19609       12.61257
H         -8.30378       -8.55486       12.14076
H         -9.29129       -5.91079       15.82659
H         -9.16989       -4.51716       14.76501
H        -11.48206       -4.55532       15.51143
H        -11.42304       -4.93946       13.79750
H        -13.02048       -6.40504       14.89090
H        -11.71856       -7.33263       14.21853
H        -12.04154       -8.29030       16.34913
H        -10.60718       -7.35023       16.55823
H        -11.84121       -6.82062       18.45965
H        -12.02681       -5.41343       17.45897
H        -14.18453       -6.01146       18.42094
H        -14.27197       -6.17450       16.69095
H        -15.37790       -8.05357       17.89214
H        -14.14621       -8.60347       16.78251
H        -14.01548       -9.86967       18.87064
H        -12.53290       -8.95220       18.69570
H        -13.52019       -7.12767       20.26017
H        -14.97495       -9.70593       21.01525
H        -14.89431       -8.19486       23.17906
H        -14.92181       -6.79868       22.11840
H        -17.20118       -7.21245       22.85964
H        -17.08629       -7.47023       21.13230
H        -18.48287       -9.19806       22.20631
H        -17.12735       -9.89403       21.37308
H        -17.34175      -11.05299       23.46921
H        -15.86792      -10.13986       23.52707
H        -16.94158       -9.86477       25.65394
H        -17.00831       -8.32330       24.84489
H        -19.13545       -8.78391       25.94328
H        -19.37089       -8.67199       24.21303
H        -20.69081      -10.50490       25.12226
H        -19.48778      -11.15542       24.02785
H        -19.24477      -11.10549       27.08445
H        -19.68216      -12.51366       26.10008
H        -18.06053      -11.82921       25.97824
