31

C          0.49305        0.79564       -0.19367
N          0.02411        0.01832       -1.32726
C         -1.31769       -0.53581       -1.23672
C          0.66529        0.24077       -2.54522
O          1.56494        1.07368       -2.67587
C          0.26951       -0.62174       -3.72693
C          1.09838       -1.90017       -3.76472
O          0.71266       -2.81455       -2.72199
C          1.49861       -2.79882       -1.61406
O          2.50506       -2.13938       -1.42821
C          0.87844       -3.63341       -0.56988
C          0.64894       -3.06646        0.68852
C          0.08059       -3.83509        1.70300
C         -0.22795       -5.17503        1.46704
C          0.01818       -5.74476        0.21514
C          0.56380       -4.97255       -0.81192
H          0.16592        0.32961        0.74028
H          0.09831        1.81216       -0.26389
H          1.58748        0.83081       -0.19280
H         -2.02523        0.18711       -1.65214
H         -1.39048       -1.47010       -1.79691
H         -1.57175       -0.74826       -0.19460
H         -0.80193       -0.83239       -3.72764
H          0.46454       -0.03394       -4.63283
H          0.90142       -2.41694       -4.71064
H          2.17340       -1.68648       -3.74270
H          0.91269       -2.02892        0.87568
H         -0.10905       -3.39442        2.67868
H         -0.65201       -5.78049        2.26488
H         -0.20764       -6.79454        0.04473
H          0.76312       -5.41932       -1.78212
