38

C          0.98821        0.15930       -0.30595
C          0.67804       -1.31607       -0.50913
C          1.11254       -2.19059        0.67005
C          0.44672       -1.84759        2.00756
C         -1.08134       -1.97534        2.01570
C         -1.60575       -3.39464        1.76796
C         -1.14634       -4.42885        2.80096
C         -1.64239       -4.16367        4.22669
C         -3.16238       -4.26772        4.42139
C         -3.79135       -5.61747        4.03376
C         -3.40937       -6.72671        4.97626
O         -4.11849       -7.28556        5.79696
O         -2.12430       -7.11472        4.83688
C         -5.28849       -5.49222        3.93520
O         -5.97174       -5.89334        3.00520
O         -5.87081       -4.89395        4.99096
H          0.42702        0.57769        0.53476
H          0.71521        0.72907       -1.19937
H          2.05591        0.31099       -0.11834
H         -0.39199       -1.44218       -0.70639
H          1.19927       -1.66221       -1.40957
H          0.92174       -3.24079        0.41984
H          2.19946       -2.10458        0.79248
H          0.87795       -2.48629        2.78675
H          0.71420       -0.82534        2.29794
H         -1.45711       -1.60788        2.97727
H         -1.51259       -1.30530        1.26345
H         -2.70111       -3.36530        1.73738
H         -1.29356       -3.73095        0.77245
H         -1.46453       -5.42289        2.46999
H         -0.05186       -4.47625        2.81492
H         -1.13837       -4.85694        4.90829
H         -1.31932       -3.16806        4.55223
H         -3.37625       -4.05655        5.47776
H         -3.64719       -3.46208        3.85495
H         -3.47226       -5.91222        3.02761
H         -2.00818       -7.81854        5.50995
H         -6.83195       -4.96577        4.81007
