28

C          0.68418        0.20992       -0.14867
C          0.43489       -0.10503        1.30621
C          0.56956       -1.42869        1.76521
Cl         0.99341       -2.73223        0.70803
C          0.38197       -1.74598        3.10883
C          0.07436       -0.74664        4.02577
C         -0.05426        0.59289        3.62163
C         -0.37395        1.62845        4.68945
C         -1.77310        1.50040        5.26364
C         -2.85671        1.97535        4.49923
C         -4.16877        1.85299        4.96268
C         -4.41456        1.24989        6.19088
Cl        -6.03139        1.08311        6.75467
C         -3.36088        0.78015        6.96927
C         -2.04606        0.91157        6.51120
Cl        -0.79553        0.32618        7.55213
C          0.13526        0.90395        2.25514
Cl         0.01517        2.55848        1.73352
H          0.22023        1.14483       -0.47164
H          0.25366       -0.55794       -0.79973
H          1.76129        0.27438       -0.33403
H          0.48343       -2.77274        3.45337
H         -0.05463       -1.02688        5.06866
H          0.39067        1.55775        5.47186
H         -0.25685        2.65373        4.32283
H         -2.68308        2.44478        3.53243
H         -4.99155        2.22676        4.35734
H         -3.56176        0.31331        7.92934
