29

C          1.09425        0.07362       -0.24677
C          0.71756       -1.38298       -0.46785
C          1.15609       -2.30278        0.67438
C          0.54153       -1.98928        2.04519
C         -0.99080       -1.99812        2.09747
C         -1.57034       -3.36114        1.83832
C         -2.34678       -4.01378        2.71644
C         -2.89721       -5.39498        2.48810
C         -2.32425       -6.41742        3.46440
C         -2.82384       -6.18159        4.86528
O         -3.56824       -6.95826        5.45652
H          0.58670        0.49364        0.62643
H          0.80668        0.67248       -1.11671
H          2.17427        0.18019       -0.10422
H         -0.36243       -1.46227       -0.63189
H          1.19381       -1.72912       -1.39304
H          0.92519       -3.33818        0.39737
H          2.24832       -2.25501        0.76844
H          0.92986       -2.71708        2.77000
H          0.89788       -1.00983        2.38537
H         -1.29801       -1.64252        3.08933
H         -1.40829       -1.28597        1.37825
H         -1.33134       -3.82511        0.88363
H         -2.60985       -3.52555        3.65274
H         -3.98944       -5.35557        2.57497
H         -2.67205       -5.72592        1.46648
H         -2.62726       -7.42603        3.16195
H         -1.22919       -6.38991        3.48181
H         -2.47437       -5.25647        5.35432
