19

C          0.90713       -0.00662        0.37428
C          0.41194       -1.41590        0.54212
O         -0.30809       -1.71547        1.49826
N          0.68908       -2.37141       -0.39130
C          1.58579       -2.40385       -1.47101
C          2.72304       -1.60038       -1.57220
C          3.57072       -1.70463       -2.68130
C          3.28441       -2.61881       -3.69108
Br         4.41990       -2.74481       -5.19566
C          2.17070       -3.44646       -3.59103
C          1.33413       -3.34821       -2.47512
H          0.20822        0.67240        0.87381
H          0.93082        0.28460       -0.67859
H          1.88941        0.10570        0.83737
H          0.11050       -3.19343       -0.25620
H          3.01333       -0.91507       -0.78469
H          4.45528       -1.07511       -2.73869
H          1.94196       -4.16707       -4.37178
H          0.46486       -3.99971       -2.41825
