16

O          1.13548       -0.08687       -0.18080
N          2.31829       -0.06044        0.16363
O          3.23002       -0.79074       -0.22740
N          2.73524        0.95247        0.95631
C          2.18768        1.02866        2.26819
C          2.78334        1.95620        3.14745
C          2.29716        2.15722        4.44259
C          1.18720        1.44726        4.88360
C          0.56119        0.54918        4.02543
C          1.04851        0.35136        2.72719
H          3.74096        1.04664        1.00559
H          3.63971        2.54605        2.82571
H          2.78015        2.87545        5.10037
H          0.80164        1.60200        5.88799
H         -0.31827        0.00324        4.35939
H          0.50348       -0.35218        2.10303
