41

C          0.57757       -0.22772       -0.01237
C          0.48925        1.28405       -0.11932
O          0.96746        1.78545       -1.37623
C          2.31231        1.74044       -1.56823
O          3.10845        1.15344       -0.84166
C          2.75660        2.55776       -2.78731
N          2.29345        1.89205       -4.02986
C          2.25018        4.01357       -2.73341
C          2.73946        4.93889       -1.63098
C          2.57708        6.32092       -1.81692
C          2.98184        7.26209       -0.84768
I          2.95423        9.25555       -1.55190
C          3.46598        6.82832        0.39622
O          3.92337        7.60020        1.43933
C          3.33374        8.78732        1.77912
C          1.95802        9.00029        1.86024
C          1.48794       10.29797        2.09503
I         -0.57828       10.62720        2.06428
C          2.38479       11.35786        2.30090
O          1.94052       12.64300        2.46649
C          3.75878       11.10617        2.31782
I          5.17030       12.61193        2.64678
C          4.23008        9.81874        2.06858
C          3.64769        5.44355        0.57054
I          4.48509        4.64010        2.33989
C          3.31147        4.51874       -0.43091
H          0.17068       -0.70897       -0.90623
H          0.03114       -0.57945        0.86769
H          1.61445       -0.56110        0.09029
H         -0.56122        1.58577       -0.04875
H          1.01950        1.77775        0.70363
H          3.85369        2.55949       -2.79649
H          2.69120        2.36798       -4.83868
H          2.66088        0.93955       -4.05249
H          2.53433        4.48574       -3.68573
H          1.15254        4.02318       -2.69826
H          2.15702        6.66955       -2.76113
H          1.26657        8.17950        1.69285
H          0.97935       12.65276        2.31410
H          5.29664        9.60680        2.04997
H          3.52007        3.47282       -0.23934
