49

C          1.46752       -0.30065        0.70987
C          0.69309       -0.96441        1.86521
C         -0.79936       -1.06581        1.56992
C         -1.07683       -2.16287        0.54633
C         -0.75641       -3.57146        1.08921
C          0.44098       -3.59244        2.08328
C          1.34340       -4.82148        1.94156
C          0.51301       -6.07580        1.82951
C         -0.33696       -6.11846        0.55584
C         -1.47939       -7.11206        0.80018
C         -2.27053       -7.32997       -0.45991
O         -2.64836       -8.45274       -0.79351
C         -2.61507       -6.11247       -1.27729
C         -2.27751       -4.82111       -0.53704
C         -0.80746       -4.72025       -0.00143
C          0.10166       -4.35823       -1.20802
C          1.32946       -2.32745        2.22655
C          1.79201       -2.19082        3.70188
C          2.06352       -0.72070        3.93926
C          0.98200       -0.11673        3.09614
O          0.47061        0.97362        3.32626
H          1.08580        0.70643        0.50642
H          1.41013       -0.88240       -0.21434
H          2.53103       -0.18969        0.95735
H         -1.36611       -1.26312        2.48862
H         -1.17138       -0.10765        1.18466
H         -0.50658       -1.94837       -0.36047
H         -2.13337       -2.11242        0.25751
H         -1.61618       -3.79650        1.74291
H         -0.05787       -3.71974        3.05747
H          2.01182       -4.72712        1.07923
H          1.98753       -4.90793        2.82525
H          1.17600       -6.95032        1.84690
H         -0.12305       -6.16037        2.72015
H          0.29948       -6.57780       -0.21575
H         -1.06671       -8.07953        1.11274
H         -2.15786       -6.76432        1.58630
H         -3.69424       -6.13894       -1.46919
H         -2.08702       -6.17250       -2.23259
H         -2.50269       -3.97642       -1.20003
H         -2.97548       -4.73317        0.30654
H         -0.29155       -3.51129       -1.78011
H          1.11594       -4.10080       -0.89095
H          0.17587       -5.18955       -1.91864
H          2.22882       -2.46460        1.61052
H          2.67111       -2.80720        3.91411
H          0.99966       -2.50682        4.39351
H          3.03996       -0.41972        3.54980
H          1.96389       -0.44522        4.99096
