18

N         -2.84325       -0.00061        0.17611
C         -1.45364       -0.02135        0.01137
C         -0.72683        1.17209        0.04007
C          0.66938        1.16020        0.00707
C          1.35205       -0.05183       -0.00826
O          2.71912        0.02567       -0.03530
C          0.64381       -1.25951        0.02227
C          1.38601       -2.53809        0.03711
O          2.60305       -2.62577        0.03198
O          0.59949       -3.62666        0.05025
C         -0.75911       -1.23438        0.05335
H         -3.28664        0.84932       -0.15940
H         -3.31453       -0.83603       -0.15752
H         -1.24311        2.12756        0.08830
H          1.22290        2.09538        0.01004
H          3.08862       -0.88375       -0.01558
H          1.22309       -4.38286        0.06231
H         -1.31745       -2.16515        0.11180
