22

C          0.96894       -0.05514        0.14824
O          0.57062       -1.03820        1.10688
C          0.84809       -2.31847        0.74459
O          1.40650       -2.65267       -0.29097
C          0.35111       -3.28859        1.77013
C          0.83247       -2.99487        3.16623
O          0.03099       -2.77822        4.07831
C          2.31614       -2.97207        3.42172
C          3.00308       -4.26220        3.09996
O          3.98787       -4.34513        2.37939
O          2.40574       -5.30601        3.73319
C          3.04077       -6.56838        3.51591
H          0.59877        0.91675        0.48627
H          0.53224       -0.26736       -0.83296
H          2.06040       -0.01095        0.08655
H         -0.74408       -3.27615        1.75028
H          0.66760       -4.30021        1.49661
H          2.76078       -2.16618        2.82909
H          2.50261       -2.73888        4.47568
H          2.92032       -6.87503        2.47259
H          4.10014       -6.52447        3.78852
H          2.55156       -7.30798        4.15584
