18

O          1.17987       -0.12054       -0.05188
C          0.47865       -0.47972        1.07030
C          0.90096       -0.04121        2.31658
C          0.16116       -0.43945        3.41185
N         -0.93514       -1.22435        3.33880
C         -1.33798       -1.64224        2.12463
C         -2.46345       -2.45081        2.02770
C         -2.93602       -2.91540        0.79664
C         -2.27300       -2.56734       -0.37325
C         -1.13968       -1.76012       -0.30422
C         -0.66067       -1.29206        0.93884
H          1.96069        0.39355        0.21070
H          1.77039        0.58946        2.44849
H          0.43679       -0.12953        4.41606
H         -2.98823       -2.72728        2.93926
H         -3.82009       -3.54620        0.75863
H         -2.63342       -2.92119       -1.33536
H         -0.62205       -1.48941       -1.22227
