14

O          1.04872       -0.31268        0.01873
C          2.24537       -0.09211       -0.09101
O          3.16900       -0.91928        0.44185
C          2.81813        1.09549       -0.81627
C          2.52508        1.02013       -2.30265
Br         0.69360        1.54463       -2.73170
C          3.42573        1.95026       -3.07626
O          4.19192        1.62089       -3.96816
O          3.35775        3.23899       -2.68359
H          4.10110       -0.65451        0.33513
H          2.42510        2.00554       -0.34880
H          3.90321        1.12096       -0.65427
H          2.64664        0.00468       -2.69461
H          3.92733        3.72824       -3.31502
