19

O          1.00929        0.08392        0.50796
C          2.22783        0.07941        0.41192
O          2.98192       -0.88708        0.99069
C          3.04514        1.11180       -0.36003
O          2.39094        1.64070       -1.50952
C          2.67607        0.94914       -2.66074
C          2.34673       -0.40394       -2.79191
C          2.61960       -1.07056       -3.98639
Cl         2.24212       -2.74251       -4.13329
C          3.19284       -0.39513       -5.06214
C          3.49405        0.96333       -4.94515
C          3.23277        1.63606       -3.74828
Cl         3.63849        3.30998       -3.64075
H          3.94094       -0.82768        0.82126
H          3.21463        1.94743        0.32901
H          4.03272        0.71117       -0.62109
H          1.84978       -0.94075       -1.98950
H          3.39495       -0.91591       -5.99490
H          3.92785        1.49172       -5.79069
