31

C          1.01627       -0.19876        0.24157
C          0.50771        1.10530        0.83999
C          1.27434        2.33764        0.36234
C          0.88511        2.83206       -1.00775
O          0.63952        4.00265       -1.25743
O          0.84108        1.84145       -1.93323
C          0.29254        2.14356       -3.27936
C         -1.25650        2.04030       -3.23975
Cl        -2.06821        3.24778       -2.18623
Cl        -2.08316        2.13002       -4.83553
Cl        -1.71916        0.40044       -2.58677
P          0.90254        3.77389       -3.84401
O          2.34557        3.24019       -3.72085
O          0.39526        3.48515       -5.39091
C          1.03027        2.52373       -6.21928
O          1.47920        5.31513       -4.37781
C          2.16681        6.07031       -3.39562
H          0.68391       -0.32625       -0.79132
H          0.62902       -1.04969        0.81046
H          2.10920       -0.24515        0.25830
H         -0.56429        1.21092        0.63487
H          0.61870        1.03899        1.92928
H          1.03920        3.15600        1.05633
H          2.35721        2.18749        0.39532
H          0.69005        1.34287       -3.91219
H          2.07493        2.36042       -5.95168
H          0.49000        1.57417       -6.15084
H          0.97427        2.86142       -7.25635
H          1.55420        6.17323       -2.49770
H          3.12070        5.59635       -3.14979
H          2.36929        7.06449       -3.80207
