22

Cl        -2.10346       -0.15225       -0.25131
C         -0.38138       -0.03834       -0.10737
C          0.33927       -1.23953       -0.11572
C          1.73041       -1.22647       -0.03002
C          2.40529       -0.01372        0.06312
C          1.68820        1.18563        0.07419
C          0.28174        1.20024       -0.00823
C         -0.41815        2.49588        0.01293
C         -0.26995        3.40778       -1.04501
C         -0.91704        4.64590       -1.02136
C         -1.72183        4.99104        0.06174
C         -1.87852        4.10117        1.12163
C         -1.22841        2.86462        1.09886
H         -0.18211       -2.19038       -0.19359
H          2.28549       -2.16118       -0.03826
H          3.49051        0.00293        0.12937
H          2.23564        2.12366        0.15600
H          0.34983        3.15282       -1.90228
H         -0.79409        5.33800       -1.85014
H         -2.22834        5.95251        0.07917
H         -2.50755        4.36671        1.96718
H         -1.35998        2.18417        1.93778
