10

C          1.10554        0.01434        0.09605
O          0.64693        1.37077        0.09568
C          0.96732        2.24112        1.08503
N          1.75067        1.77373        2.09190
O          0.57612        3.40080        1.08615
H          0.71310       -0.47285       -0.80084
H          0.72345       -0.51711        0.97245
H          2.19818       -0.01874        0.05645
H          1.98123        2.43329        2.82195
H          2.10796        0.83705        2.15751
