48

C          0.69182       -0.01633       -0.01450
C         -0.09712       -0.51906       -0.97773
C         -1.57278       -0.30682       -1.05243
C          0.53787       -1.35682       -2.02477
O          1.45756       -2.13221       -1.81900
O         -0.01889       -1.04968       -3.22187
C          0.59683       -1.61645       -4.38843
C          1.54209       -0.59646       -5.02707
C          2.77133       -0.25569       -4.17648
C          3.74236       -1.42695       -3.99400
C          4.56003       -1.75684       -5.24544
C          5.54851       -0.66093       -5.65797
C          6.56925       -0.28715       -4.57647
C          7.44082       -1.45468       -4.10037
C          8.29659       -2.09098       -5.20058
C          9.29174       -1.13394       -5.86598
C         10.30521       -0.49706       -4.91185
C         11.20543       -1.51841       -4.23415
H          0.29033        0.60331        0.78019
H          1.76317       -0.20341       -0.00284
H         -1.82869        0.34847       -1.89104
H         -2.08752       -1.26395       -1.18806
H         -1.96202        0.15003       -0.13700
H          1.08566       -2.57271       -4.17603
H         -0.21386       -1.83471       -5.09206
H          1.85511       -0.95682       -6.01257
H          0.98654        0.33548       -5.19091
H          3.28825        0.59702       -4.62942
H          2.45127        0.09958       -3.19128
H          4.41133       -1.20265       -3.15610
H          3.20383       -2.33003       -3.69310
H          5.10414       -2.69216       -5.06923
H          3.88905       -1.96449       -6.08627
H          6.07199       -0.98609       -6.56424
H          5.00078        0.24185       -5.95005
H          7.20415        0.52100       -4.95637
H          6.05189        0.14150       -3.71042
H          8.08413       -1.10499       -3.28506
H          6.80989       -2.23178       -3.65339
H          8.83477       -2.94639       -4.77675
H          7.64700       -2.51438       -5.97561
H          9.83199       -1.68211       -6.64740
H          8.74633       -0.33642       -6.38412
H         10.93116        0.19876       -5.48265
H          9.79467        0.10389       -4.15141
H         11.73432       -2.12393       -4.97691
H         11.95110       -1.01174       -3.61410
H         10.63637       -2.18926       -3.58378
