22

C          1.11355       -0.17197        0.09255
O          0.34799       -0.49304        1.24817
C          0.75098       -1.60335        1.93836
C          2.03627       -2.12140        1.95407
C          2.30745       -3.26330        2.71164
C          1.31303       -3.89470        3.48067
O          1.80720       -5.00253        4.11568
C          0.92533       -5.92518        4.72726
C          0.02544       -3.33433        3.52528
N         -1.07126       -3.89869        4.20722
C         -0.24124       -2.21524        2.71072
H          0.59472        0.63381       -0.43588
H          1.18028       -1.02911       -0.58605
H          2.10797        0.19673        0.36238
H          2.84877       -1.66622        1.39775
H          3.31272       -3.67884        2.70032
H          0.58450       -5.54154        5.69296
H          0.09465       -6.20848        4.07472
H          1.49570       -6.83590        4.93771
H         -1.86698       -3.27089        4.26969
H         -0.82196       -4.24115        5.12668
H         -1.24209       -1.79236        2.68157
