54

C          1.04027       -0.57960       -0.39430
C          0.85057       -0.49702        1.11240
C          1.43435        0.77899        1.72439
C          0.83415        2.09056        1.20356
C         -0.67409        2.25414        1.42065
C         -1.12702        2.16390        2.87911
C         -0.61153        3.29596        3.77658
C         -1.36561        4.62656        3.63797
C         -2.85909        4.59542        3.99453
C         -3.14317        4.18964        5.41989
C         -3.38369        5.14729        6.41069
C         -3.65939        4.74787        7.72224
C         -3.69803        3.39310        8.06207
O         -4.08335        3.12082        9.34282
C         -4.66494        1.83796        9.61101
C         -6.15653        1.76805        9.24724
O         -6.39655        1.39036        7.88724
C         -6.68546        2.48073        7.00253
C         -8.18688        2.69512        6.83201
O         -8.76224        3.27897        7.99793
C         -3.40140        2.44063        7.09310
C         -3.15945        2.83694        5.77912
H          0.45122        0.18202       -0.91372
H          0.71539       -1.55763       -0.76279
H          2.09274       -0.44750       -0.66463
H         -0.21396       -0.58880        1.35419
H          1.34735       -1.35922        1.57370
H          1.32578        0.72836        2.81417
H          2.51493        0.79746        1.53552
H          1.36459        2.92455        1.67659
H          1.04238        2.18629        0.13177
H         -0.98971        3.21577        0.99953
H         -1.20556        1.48700        0.84481
H         -2.22076        2.13055        2.89082
H         -0.80701        1.20621        3.30469
H         -0.65140        2.96512        4.82004
H          0.45108        3.47748        3.58605
H         -0.86727        5.36568        4.27850
H         -1.26204        4.99220        2.60949
H         -3.27700        5.59594        3.82020
H         -3.41150        3.93791        3.31310
H         -3.38137        6.20715        6.16804
H         -3.88510        5.49879        8.47602
H         -4.08546        1.01268        9.18708
H         -4.59076        1.72400       10.69897
H         -6.60262        0.96522        9.84447
H         -6.66867        2.70032        9.50195
H         -6.21860        3.40566        7.34499
H         -6.26369        2.21141        6.02842
H         -8.36743        3.38301        6.00038
H         -8.70509        1.75288        6.63249
H         -8.72934        2.59604        8.68895
H         -3.38810        1.37916        7.30788
H         -2.98279        2.06390        5.03670
