32

C          2.09667        0.33661       -1.07766
C          1.00990        0.48673       -2.13328
C          0.77690       -0.75747       -3.00174
C          0.34787       -2.04757       -2.29496
O         -1.02362       -2.11082       -1.90898
P         -1.60028       -0.89574       -0.82090
O         -2.67424       -1.88318       -0.35153
O         -0.39253       -1.21158        0.23460
O         -2.17694        0.31935        0.26719
C         -3.58175        0.57811        0.28950
C         -4.16819        1.10942       -1.02427
C         -4.36731        0.11132       -2.17304
C         -5.33078       -1.02842       -1.87061
H          1.93700       -0.52410       -0.42523
H          2.12143        1.22820       -0.44128
H          3.08085        0.22966       -1.54309
H          0.08128        0.81260       -1.66047
H          1.30003        1.31273       -2.79485
H          0.02601       -0.50454       -3.75915
H          1.71487       -0.96395       -3.53294
H          0.48537       -2.87246       -3.00363
H          0.98762       -2.28746       -1.44129
H         -0.75784       -1.87812        0.85017
H         -4.12564       -0.29079        0.67033
H         -3.71692        1.35887        1.04707
H         -5.14680        1.55263       -0.80028
H         -3.52479        1.91746       -1.39168
H         -4.76209        0.65991       -3.03753
H         -3.40932       -0.29275       -2.50688
H         -6.36051       -0.66303       -1.81668
H         -5.28263       -1.77715       -2.66917
H         -5.10684       -1.53764       -0.93124
