23

Cl         1.38705        0.00817        0.66658
C          2.88674        0.36681       -0.04070
C          3.81198        1.22240        0.40240
Cl         3.75449        2.19058        1.79097
C          5.02965        1.06702       -0.49068
Cl         6.15805        2.41081       -0.47293
C          5.63356       -0.31033       -0.07107
C          6.91308       -0.72615       -0.73014
O          7.45939       -1.92986       -0.19010
C          6.74335       -2.02381       -1.43855
Cl         7.70298       -2.38766       -2.84897
C          5.32424       -2.50459       -1.26416
Cl         4.59286       -3.18906       -2.71071
C          4.53207       -1.35319       -0.57156
C          3.47996       -0.38234       -1.23923
Cl         2.25702       -1.07418       -2.28928
C          4.31024        0.78952       -1.84659
Cl         3.32176        2.18761       -2.45074
Cl         5.36424        0.34215       -3.21363
H          5.75726       -0.37759        1.01854
H          7.59871        0.03388       -1.06793
H          5.36573       -3.34089       -0.55428
H          4.05214       -1.81134        0.30733
