32

C          1.33593       -1.38970       -0.73304
C          0.34427       -2.13237        0.11995
O         -0.85074       -2.18182       -0.13406
O          0.95737       -2.60884        1.23517
C          0.35659       -2.55747        2.56537
C         -0.89925       -1.68841        2.72633
C         -0.32143       -0.33412        3.20328
C          1.16051       -0.36663        2.79780
C          1.38226       -1.74637        3.41816
C          0.90367       -1.49949        4.88392
C          1.95796       -0.88409        5.80247
C          1.60020        0.57743        6.05048
C          0.29574        0.87922        5.33836
C         -0.20162       -0.42829        4.73047
H          1.16171       -0.31325       -0.62680
H          1.22580       -1.68412       -1.77736
H          2.36019       -1.60288       -0.41332
H          0.21893       -3.58354        2.92163
H         -1.52437       -1.56652        1.84745
H         -1.55038       -2.12517        3.49621
H         -0.88179        0.53004        2.84285
H          1.79070        0.40321        3.24935
H          1.32327       -0.30887        1.72392
H          2.40394       -2.12611        3.33029
H          0.51701       -2.42932        5.31756
H          2.96763       -0.97397        5.38713
H          1.96818       -1.41393        6.76203
H          2.39526        1.23577        5.68107
H          1.50086        0.77640        7.12283
H          0.44435        1.66016        4.58095
H         -0.44662        1.28595        6.03311
H         -1.14015       -0.73276        5.20622
