27

C          0.91628       -0.12385       -0.01690
C          0.53599        0.98351        0.91925
C         -0.15898        0.72605        2.09651
C         -0.48623        1.77214        2.96684
C         -0.13100        3.11823        2.70262
C          0.57109        3.36221        1.49559
C          0.95292        4.66457        1.16264
C          0.65981        5.73279        2.00568
C         -0.02337        5.53036        3.20727
C         -0.29520        6.62849        4.04133
C         -0.97051        6.46538        5.24773
C         -1.38519        5.19991        5.63280
C         -1.12171        4.09980        4.81092
C         -0.43349        4.22342        3.57706
C          0.89359        2.30329        0.62757
H          0.52199        0.07419       -1.01874
H          0.51492       -1.08685        0.31560
H          2.00617       -0.21287       -0.06980
H         -0.45272       -0.28866        2.35515
H         -1.02866        1.50757        3.86982
H          1.48961        4.86388        0.23751
H          0.97716        6.73088        1.71108
H          0.02322        7.62887        3.75491
H         -1.17001        7.32429        5.88239
H         -1.91315        5.06078        6.57250
H         -1.46707        3.13105        5.16011
H          1.43880        2.50724       -0.29287
