25

O         -0.64899        2.76667       -0.06766
C         -0.44923        1.55831       -0.01972
C         -1.58256        0.62021        0.02601
C         -2.89136        1.11571        0.10561
C         -3.97095        0.23314        0.15860
C         -3.74731       -1.14218        0.12658
C         -2.44395       -1.63538        0.04159
C         -1.35590       -0.75185       -0.00554
C          0.01942       -1.28816       -0.09201
O          0.15984       -2.49527       -0.24286
C          1.17152       -0.34959       -0.00485
C          2.50216       -0.79587        0.05817
O          2.79579       -2.12949        0.07272
C          3.56196        0.11487        0.12717
C          3.30660        1.48365        0.13357
C          1.99293        1.94111        0.07698
C          0.92865        1.02774        0.01287
H         -3.07273        2.18887        0.13003
H         -4.98572        0.61905        0.22472
H         -4.58676       -1.83272        0.16721
H         -2.27861       -2.71142        0.01503
H          3.75541       -2.26975        0.06510
H          4.59211       -0.22723        0.18184
H          4.12826        2.19421        0.18866
H          1.79843        3.01278        0.08878
