30

C          0.86329       -0.00788        0.06040
C          0.37770       -0.75063        1.06375
C         -1.05625       -0.96761        1.34527
O         -1.44642       -1.81728        2.13103
O         -1.84860       -0.13504        0.63249
C         -3.26858       -0.23407        0.88996
C         -3.88273       -1.42389        0.12650
O         -3.83003       -2.59558        0.95808
C         -5.35494       -1.16902       -0.25285
O         -5.49878       -0.73054       -1.61840
C         -5.33534        0.61875       -1.75212
C         -6.43415        1.46974       -1.66655
C         -6.24787        2.84645       -1.80586
C         -4.96881        3.36082       -2.02982
C         -3.88022        2.49829       -2.15492
C         -4.06988        1.12260       -2.04669
H          0.22025        0.51266       -0.64228
H          1.93550        0.08470       -0.08429
H          1.04906       -1.27474        1.73605
H         -3.44416       -0.31152        1.96991
H         -3.69049        0.72122        0.57248
H         -3.29451       -1.64661       -0.77115
H         -2.95823       -2.61258        1.40730
H         -5.91238       -2.11166       -0.18829
H         -5.85049       -0.48380        0.44824
H         -7.42944        1.06807       -1.50021
H         -7.09867        3.52021       -1.74284
H         -4.82195        4.43402       -2.12159
H         -2.88559        2.89473       -2.33915
H         -3.22709        0.44840       -2.16534
