43

C          0.84488       -0.18839       -0.61433
O          0.12029        1.03336       -0.60337
C          0.80435        2.10604        0.03477
C          0.46206        2.23797        1.51660
C          1.10841        1.21672        2.45397
N          2.55860        1.22543        2.32333
C          3.26569        1.04843        3.50754
N          2.78888        0.28712        4.48218
C          3.49059        0.27378        5.60775
N          2.91291       -0.42221        6.65644
C          3.78123       -0.89198        7.72140
C          2.97488       -1.12664        9.00097
C          1.88374       -2.19122        8.91359
O          2.36551       -3.51030        9.16028
C          2.90964       -4.16060        8.02360
N          4.62977        0.92301        5.77753
C          5.03526        1.63487        4.73535
S          6.55117        2.54329        4.94345
C          6.37653        3.75546        3.61071
N          4.39040        1.73788        3.58040
H          0.46885       -0.79520       -1.44276
H          0.66660       -0.73993        0.31028
H          1.91740       -0.03137       -0.76343
H          1.88355        2.06718       -0.15054
H          0.44836        3.01714       -0.46090
H          0.76736        3.23955        1.84621
H         -0.62564        2.17411        1.64166
H          0.79265        1.48170        3.47198
H          0.72793        0.20971        2.26102
H          2.96212        2.05562        1.90189
H          2.27421       -1.09715        6.25164
H          4.31205       -1.79304        7.40464
H          4.54449       -0.14394        7.97009
H          3.67025       -1.38536        9.80839
H          2.49879       -0.17554        9.27385
H          1.16948       -1.99189        9.72126
H          1.30761       -2.14809        7.98337
H          2.32717       -3.95738        7.12000
H          3.95076       -3.86367        7.88347
H          2.89415       -5.23810        8.20976
H          6.41110        3.26544        2.63351
H          5.43952        4.31158        3.70918
H          7.20384        4.46812        3.66499
