11

C          0.94922        0.04787       -0.01940
C          0.36965       -0.41251        1.31159
Br         1.05626        0.79103        2.70977
C         -1.14852       -0.37249        1.36579
Br        -1.92071       -1.81242        0.30097
H          0.60867        1.05637       -0.27990
H          0.66138       -0.62476       -0.83314
H          2.04444        0.06793        0.01351
H          0.75754       -1.40228        1.57424
H         -1.53020       -0.53070        2.37939
H         -1.56039        0.56417        0.97784
