41

C          0.91007        0.28738        0.63773
C          0.47394        1.34741       -0.36109
C          1.03322        1.11636       -1.75848
C          0.39793       -0.07201       -2.45262
O         -0.66047        0.07121       -3.06863
C          1.11374       -1.40382       -2.39386
C          0.25761       -2.55495       -2.84648
O         -0.23652       -3.34584       -2.04331
C         -0.03155       -2.65096       -4.32893
C          1.24176       -2.54101       -5.18866
C          0.88992       -2.53000       -6.72270
C         -0.21846       -1.56231       -7.18722
C          0.16969       -0.09076       -7.22664
C          1.32607        0.20149       -8.17296
S          2.82330       -0.77113       -7.84733
C          2.10393       -2.43426       -7.66318
C          2.19786       -1.43362       -4.71807
C          2.36508       -1.37555       -3.21744
O          3.46260       -1.16295       -2.70262
H          0.39223       -0.65931        0.45714
H          0.66804        0.60487        1.65636
H          1.98916        0.11104        0.58332
H         -0.62120        1.38941       -0.38831
H          0.82476        2.32372       -0.00672
H          0.82225        1.99567       -2.38097
H          2.12165        1.00998       -1.74366
H          1.39881       -1.61180       -1.35802
H         -0.75673       -1.86947       -4.55981
H         -0.51769       -3.61509       -4.52122
H          1.79356       -3.47867       -5.01484
H          0.47024       -3.53315       -6.89966
H         -0.52014       -1.85587       -8.20270
H         -1.12501       -1.68350       -6.58707
H          0.38103        0.28164       -6.22074
H         -0.69953        0.48713       -7.56561
H          1.59652        1.26002       -8.09476
H          1.02179        0.02350       -9.20905
H          2.89369       -3.11526       -7.32833
H          1.81217       -2.76711       -8.66638
H          1.87137       -0.43980       -5.02176
H          3.19579       -1.61535       -5.13183
