43

C          0.69302       -0.13979        0.31094
C          0.50933        0.53817       -1.02362
C          0.75729        1.90892       -1.16155
C          1.29320        2.73745       -0.06940
C          2.55393        2.46644        0.48215
C          2.98998        3.12196        1.63719
C          2.19370        4.08910        2.26903
C          2.59058        4.66703        3.56884
C          1.65952        4.76120        4.62194
C          2.02863        5.24749        5.88092
C          3.34015        5.64989        6.11710
C          4.27926        5.56939        5.09285
C          3.90329        5.08538        3.83917
F          4.84690        5.02204        2.88634
C          0.97768        4.43094        1.65200
C          0.53412        3.76755        0.49994
N          0.51909        2.58628       -2.30750
C          0.08851        1.92742       -3.38743
C         -0.13248        2.67567       -4.53813
C         -0.55109        2.08964       -5.73162
C         -0.74847        0.72377       -5.76949
F         -1.13825        0.14132       -6.91007
C         -0.54389       -0.05205       -4.63417
C         -0.13021        0.53451       -3.40620
C          0.09527       -0.15841       -2.18071
C         -0.15669       -1.62673       -2.12808
O         -1.05500       -2.23210       -2.68246
O          0.76308       -2.28749       -1.40318
H         -0.06972       -0.90568        0.48020
H          0.57610        0.55488        1.14876
H          1.69034       -0.58738        0.37278
H          3.19105        1.70324        0.03935
H          3.94993        2.83496        2.06258
H          0.63364        4.42647        4.47729
H          1.29089        5.29941        6.67830
H          3.63026        6.02002        7.09692
H          5.30768        5.87407        5.25948
H          0.34500        5.20697        2.07873
H         -0.42952        4.03317        0.06891
H          0.03354        3.75095       -4.50449
H         -0.71385        2.68967       -6.62077
H         -0.71626       -1.12030       -4.73091
H          0.46217       -3.22089       -1.42936
