19

O          0.99190       -0.07235       -0.09102
C          2.20972       -0.08361       -0.05240
O          2.98412        0.44387       -1.02096
C          3.01081       -0.66406        1.04374
C          2.38199       -1.25817        2.07007
C          3.07713       -1.87939        3.20454
C          4.19040       -1.28405        3.81442
C          4.80866       -1.88936        4.91204
C          4.31414       -3.09050        5.41733
C          3.19830       -3.67757        4.82530
Br         2.51823       -5.30117        5.51616
C          2.57596       -3.07754        3.72946
H          3.94470        0.36172       -0.88630
H          4.08898       -0.61075        0.99141
H          1.29411       -1.32442        2.08540
H          4.57997       -0.33428        3.45578
H          5.67064       -1.41854        5.37848
H          4.79769       -3.55427        6.27309
H          1.70345       -3.54725        3.28047
