16

O          1.28102        0.52805        0.47797
C          2.46887        0.36895        0.24105
O          3.36277        0.05497        1.19859
C          3.04448        0.44534       -1.14815
C          2.53132       -0.71652       -1.98250
C          1.11980       -0.45469       -2.45461
O          0.86478        0.32720       -3.36332
C          0.00484       -1.20163       -1.70555
O          0.18480       -2.24111       -1.10111
O         -1.18377       -0.59796       -1.78145
H          4.27921       -0.07201        0.89011
H          2.77554        1.41834       -1.57456
H          4.13805        0.41336       -1.10057
H          3.14969       -0.83070       -2.88086
H          2.59043       -1.66519       -1.44002
H         -1.77837       -1.13088       -1.21688
