27

C          0.98406       -0.17235       -0.09849
C          0.62422       -0.49680        1.34364
C          1.06828        0.57821        2.33968
C          0.45528        1.96656        2.12594
C         -1.07270        2.02823        2.21898
C         -1.66093        1.63171        3.57633
C         -1.21058        2.48782        4.76625
C         -1.59889        3.95543        4.64083
O         -1.80915        1.96337        5.95278
H          0.43929        0.70405       -0.46143
H          0.72656       -1.01415       -0.74928
H          2.05693        0.01894       -0.20185
H         -0.45421       -0.67104        1.42224
H          1.10991       -1.44139        1.61723
H          0.84485        0.23042        3.35496
H          2.16032        0.67389        2.28824
H          0.89440        2.65690        2.85553
H          0.75917        2.34972        1.14473
H         -1.39509        3.04559        1.96805
H         -1.51252        1.38558        1.44744
H         -2.75627        1.67152        3.50498
H         -1.43579        0.57913        3.78860
H         -0.12795        2.40839        4.90448
H         -2.68065        4.06442        4.50517
H         -1.34254        4.49698        5.55799
H         -1.09016        4.44125        3.80376
H         -2.77439        2.04410        5.86120
