16

N         -2.42479       -1.00902       -0.16790
C         -1.22019       -0.31161       -0.00112
C         -1.21451        1.08407        0.00316
C         -0.00999        1.78791        0.01580
C          1.20167        1.09653        0.00101
C          1.22171       -0.29902       -0.00357
N          2.43307       -0.98397       -0.17316
C          0.00418       -0.98625       -0.08081
H         -2.38143       -1.97459        0.14178
H         -3.23249       -0.52049        0.20511
H         -2.14974        1.63640       -0.02293
H         -0.01560        2.87427        0.00803
H          2.13108        1.65843       -0.02651
H          2.40055       -1.94983        0.13703
H          3.23673       -0.48692        0.19732
H          0.00963       -2.06575       -0.20110
