33

C          0.97311        0.14536        0.28238
O          0.50859       -1.04748       -0.34400
C          1.36337       -2.11546       -0.32167
C          0.76019       -3.35358       -0.07647
C          1.50702       -4.54212       -0.09364
C          0.82665       -5.87400        0.12211
C          0.74941       -6.31644        1.58881
C         -0.21717       -5.47500        2.40363
C         -1.69847       -5.74618        2.30140
O          0.19650       -4.55516        3.11347
C          0.39337       -7.78935        1.64640
C          0.93243       -8.60192        2.79234
O         -0.38959       -8.29806        0.83713
C          2.88437       -4.47129       -0.34147
C          3.49170       -3.23962       -0.59678
C          2.72754       -2.07499       -0.61338
O          3.36908       -0.93304       -1.00096
H          0.14026        0.57793        0.84542
H          1.25230        0.86529       -0.49334
H          1.80500       -0.01148        0.97657
H         -0.30899       -3.38321        0.12064
H         -0.17255       -5.83972       -0.33129
H          1.37511       -6.63014       -0.45850
H          1.74312       -6.20741        2.04220
H         -2.22844       -5.12187        3.02804
H         -2.05936       -5.50478        1.29992
H         -1.91534       -6.78802        2.54695
H          0.17155       -8.67891        3.57242
H          1.19789       -9.59849        2.42820
H          1.83280       -8.14082        3.20449
H          3.49176       -5.37318       -0.37351
H          4.55265       -3.19201       -0.82772
H          2.69910       -0.38539       -1.44367
