12

O          1.25711       -0.13872       -0.61155
C          2.39253       -0.08129       -0.15961
O          3.07700        1.09084       -0.10166
C          3.14999       -1.21386        0.34428
C          2.77505       -2.54465        0.29673
C          3.74313       -3.40996        0.88306
C          4.82507       -2.71320        1.37111
S          4.67411       -1.03079        1.10926
H          3.97223        0.96215        0.26744
H          1.84236       -2.87741       -0.14692
H          3.64768       -4.48755        0.94607
H          5.69888       -3.11258        1.86875
