31

C          2.39323        1.33055        0.50437
C          1.12970        0.52349        0.46177
C         -0.10446        1.14723        0.25485
C         -1.26964        0.38630        0.10247
C         -2.58922        1.07071       -0.09565
C         -1.16940       -1.01051        0.07738
C          0.06293       -1.64191        0.26214
O          0.05902       -2.99264        0.06255
C          1.30354       -3.68806       -0.05750
C          1.96641       -3.67297       -1.45124
C          2.29685       -2.34220       -2.09642
N          1.16763       -2.11175       -2.92093
C          0.55660       -3.30142       -3.20214
O         -0.28537       -3.47210       -4.06289
O          1.08485       -4.28873       -2.41500
C          1.18392       -0.87105        0.55604
H          2.46701        1.94489       -0.40013
H          2.41714        1.97230        1.38766
H          3.27741        0.68294        0.52030
H         -0.15770        2.23249        0.19479
H         -2.76460        1.78902        0.71234
H         -2.60069        1.59858       -1.05422
H         -3.41867        0.35613       -0.08717
H         -2.05116       -1.61889       -0.11478
H          2.00554       -3.40091        0.73206
H          1.04877       -4.73446        0.15541
H          2.87896       -4.27739       -1.39000
H          3.15897       -2.44439       -2.76553
H          2.50644       -1.50620       -1.43625
H          0.99505       -1.30463       -3.50464
H          2.13975       -1.33030        0.77868
