45

C          1.50399        0.56498       -0.25654
C          1.08960       -0.58177        0.64988
C          1.34709       -0.31489        2.13695
C          0.39025        0.67175        2.81447
C         -1.09700        0.30421        2.82050
C         -1.50643       -0.68808        3.91058
O         -1.80639       -0.23312        5.01965
N         -1.48308       -2.05447        3.62527
C         -1.14551       -2.61980        2.31780
C         -1.91829       -3.02347        4.58692
C         -1.24777       -4.25352        4.67466
C         -1.78009       -5.30509        5.41689
C         -2.99466       -5.13288        6.08264
S         -3.70918       -6.56232        6.85510
O         -3.57911       -7.66508        5.91932
O         -3.14806       -6.63637        8.18348
N         -5.38715       -6.23642        6.99251
C         -6.13240       -6.18032        5.71165
C         -6.05589       -7.15643        7.94687
C         -3.63331       -3.89124        6.08006
C         -3.08843       -2.83557        5.33599
H          0.97403        1.48801       -0.00689
H          1.27276        0.31643       -1.29807
H          2.58044        0.74772       -0.18655
H          0.03887       -0.80626        0.45942
H          1.65312       -1.47524        0.35461
H          1.32652       -1.25992        2.68758
H          2.37127        0.06325        2.25082
H          0.72727        0.81081        3.84976
H          0.50033        1.64798        2.32683
H         -1.65485        1.22389        3.05180
H         -1.46931        0.01885        1.83735
H         -0.07604       -2.83367        2.27806
H         -1.69934       -3.54949        2.14405
H         -1.43308       -1.95029        1.51125
H         -0.30273       -4.40714        4.15976
H         -1.25747       -6.25864        5.45479
H         -6.23470       -7.17480        5.26706
H         -7.13529       -5.78035        5.89792
H         -5.65219       -5.51276        4.99317
H         -6.05023       -8.18375        7.56838
H         -5.56775       -7.12493        8.92495
H         -7.09425       -6.84443        8.09679
H         -4.56775       -3.74081        6.61431
H         -3.63220       -1.89457        5.28907
