8

O          0.95257       -0.02878        0.05529
C          2.17962        0.01338        0.07097
O          2.88539       -1.07707       -0.33447
C          2.99171        1.23403        0.52481
Br         2.49868        2.71144       -0.65593
Br         2.49868        1.58120        2.38394
Br         4.91568        0.86154        0.38631
H          3.85884       -0.97070       -0.29492
