12

Cl        -3.76427       -1.10425       -0.05946
C         -2.46196        0.02068       -0.02764
C         -2.73269        1.38902       -0.01953
C         -1.67938        2.30390        0.00690
C         -0.36005        1.84769        0.02484
C         -0.10011        0.47582        0.01593
I          1.86584       -0.20045        0.04140
C         -1.14794       -0.44421       -0.01016
H         -3.75883        1.74734       -0.03361
H         -1.88611        3.37142        0.01348
H          0.45189        2.57082        0.04552
H         -0.95205       -1.51273       -0.01701
