32

C          0.98279        0.11573       -0.20228
C          0.66832       -1.36202       -0.37971
C          1.10761       -2.22497        0.80737
C          0.44697       -1.88285        2.14847
C         -1.08320       -1.95238        2.15189
C         -1.66201       -3.35244        1.92364
C         -1.37353       -4.37891        3.02964
C         -1.82347       -3.98811        4.44880
C         -3.32037       -3.97401        4.60935
O         -4.00778       -4.74463        5.25912
O         -3.91004       -2.94958        3.95855
C         -1.19109       -4.90106        5.46669
O         -0.61111       -4.53852        6.47899
O         -1.31821       -6.21357        5.19515
H          0.43829        0.54652        0.64302
H          0.69340        0.67244       -1.09931
H          2.05405        0.27006       -0.03900
H         -0.40274       -1.48843       -0.57085
H          1.18296       -1.72136       -1.27890
H          0.91862       -3.27706        0.56454
H          2.19472       -2.13442        0.92580
H          0.84900       -2.55163        2.91850
H          0.74945       -0.87312        2.45031
H         -1.45052       -1.54618        3.10022
H         -1.48347       -1.28037        1.38454
H         -2.74528       -3.26374        1.78682
H         -1.28875       -3.75394        0.97412
H         -1.86199       -5.31955        2.74125
H         -0.29717       -4.59418        3.03589
H         -1.45363       -2.98844        4.70385
H         -4.86613       -3.06220        4.14674
H         -0.93699       -6.66186        5.97962
