40

C          1.19801        0.18076        0.06349
C          0.66467       -1.19651       -0.38531
C          1.23168       -2.28546        0.55375
N         -0.79887       -1.19907       -0.34999
C         -1.60224       -1.02773        0.62487
O         -1.23557       -0.80783        1.90291
C         -3.11612       -1.08646        0.49245
Br        -3.61883        0.39155       -0.69397
C         -3.69778       -2.46143        0.07292
C         -3.20818       -3.53770        1.06947
C         -5.24067       -2.43598        0.15519
C         -3.29481       -2.90669       -1.34544
C          1.09521       -1.52450       -1.83925
C          0.95984       -2.83382       -2.34453
C          1.39095       -3.17118       -3.63184
C          1.94233       -2.20010       -4.45961
C          2.04051       -0.88928       -4.00732
C          1.61419       -0.55445       -2.71697
H          1.03348        0.37701        1.12589
H          0.70634        0.99714       -0.47861
H          2.27999        0.25991       -0.09699
H          1.14338       -2.02153        1.61090
H          0.70962       -3.24175        0.43436
H          2.29806       -2.45574        0.36310
H         -0.28033       -0.74411        2.00459
H         -3.55297       -0.78953        1.45500
H         -3.48392       -3.27807        2.09801
H         -3.64910       -4.51586        0.84520
H         -2.11998       -3.65822        1.03384
H         -5.68014       -1.75670       -0.58196
H         -5.66180       -3.43045       -0.03446
H         -5.57928       -2.12134        1.14895
H         -3.60308       -2.18581       -2.10838
H         -2.21552       -3.05702       -1.43582
H         -3.76805       -3.86238       -1.60085
H          0.51031       -3.61502       -1.73681
H          1.29143       -4.19376       -3.98588
H          2.28096       -2.46004       -5.45852
H          2.44835       -0.11978       -4.65778
H          1.70042        0.48719       -2.42185
