35

C          0.58328        0.33739       -0.20984
C          0.41288        0.24351       -1.71603
O          1.02432       -0.91932       -2.26742
P          2.75432       -0.91932       -2.26742
S          2.65492       -2.41830       -0.85320
O          2.77778       -1.55424       -3.82593
C          1.68414       -2.10837       -4.44383
C          1.54830       -3.49500       -4.48780
C          0.38496       -4.06000       -5.02227
C         -0.63089       -3.22225       -5.50631
N         -1.88659       -3.80368       -5.99632
O         -1.92463       -5.02776       -6.17893
O         -2.83668       -3.03172       -6.19940
C         -0.46829       -1.83061       -5.50935
C          0.70820       -1.27765       -5.00111
C          4.58432       -0.91932       -2.26742
C          5.39532       -2.05490       -2.46031
C          6.78637       -1.96416       -2.38656
C          7.39367       -0.73015       -2.17172
C          6.61270        0.41517       -2.03424
C          5.21934        0.32264       -2.07711
H          0.23920       -0.57776        0.28296
H          0.01815        1.18226        0.19375
H          1.63540        0.47855        0.05825
H         -0.65382        0.19071       -1.95474
H          0.82305        1.13118       -2.20710
H          2.32134       -4.13726       -4.07356
H          0.27288       -5.14238       -5.02662
H         -1.25091       -1.17048       -5.87701
H          0.82762       -0.19882       -4.97597
H          4.94305       -3.03073       -2.62957
H          7.39288       -2.86128       -2.48510
H          8.47702       -0.66301       -2.11054
H          7.09231        1.37907       -1.88206
H          4.63108        1.22906       -1.95555
