26

C          0.71416        0.38671       -0.04903
C          0.34218        0.20373       -1.51300
C          1.04061       -0.98132       -2.17804
O          0.54381       -2.23663       -1.68898
C          1.25271       -2.80596       -0.68644
O          2.23254       -2.35418       -0.11715
C          0.61130       -4.07620       -0.31076
C          0.43690       -5.09206       -1.25294
C         -0.12377       -6.30949       -0.85566
C         -0.48062       -6.53140        0.47917
N         -1.14744       -7.70716        0.84242
C         -0.36698       -5.47816        1.39274
C          0.20799       -4.26298        1.01235
H          0.33550       -0.43568        0.56486
H          0.27931        1.31395        0.33768
H          1.79995        0.44688        0.07706
H         -0.74462        0.08122       -1.58344
H          0.60905        1.11792       -2.05567
H          0.81636       -0.96285       -3.25043
H          2.13090       -0.91263       -2.08551
H          0.73851       -4.94561       -2.28646
H         -0.27251       -7.09014       -1.59741
H         -1.09267       -7.91871        1.83424
H         -0.90432       -8.50908        0.26876
H         -0.71576       -5.60012        2.41498
H          0.32544       -3.46435        1.74054
