50

C          1.51913       -0.01327       -0.27430
C          0.66606       -0.51152       -1.43670
C          1.05873       -1.95745       -1.87856
C          0.83011       -3.23237       -0.99948
C         -0.65332       -3.62120       -0.87393
C          1.53613       -4.40878       -1.71940
C          1.44510       -3.13006        0.40247
C         -0.86408       -0.32214       -1.31138
C         -1.49823        1.04063       -0.88510
C         -0.88546        2.18187       -1.73438
C         -2.99766        0.98431       -1.25175
C         -1.32777        1.42971        0.62323
C         -1.98389        0.65891        1.82065
C         -1.82814       -0.86222        1.77531
C         -1.27637        1.15206        3.10857
C         -3.48086        0.98378        1.97540
H          1.12979       -0.31660        0.69628
H          1.58454        1.07900       -0.28067
H          2.55003       -0.37493       -0.35782
H          0.96752        0.11347       -2.29021
H          0.56946       -2.13587       -2.84741
H          2.13283       -1.91745       -2.11542
H         -1.17544       -3.52493       -1.83177
H         -0.76361       -4.66115       -0.54327
H         -1.17710       -3.02131       -0.12893
H          2.61219       -4.22619       -1.81648
H          1.41286       -5.34700       -1.16515
H          1.12580       -4.56129       -2.72375
H          2.50321       -2.85198        0.35590
H          0.92432       -2.40310        1.02552
H          1.37910       -4.08830        0.93188
H         -1.26708       -0.56440       -2.30798
H         -1.26541       -1.09078       -0.66957
H         -0.95731        1.96344       -2.80623
H         -1.40933        3.12891       -1.55807
H          0.16907        2.34956       -1.49832
H         -3.47671        0.08830       -0.84762
H         -3.53333        1.86647       -0.88364
H         -3.13822        0.95271       -2.33920
H         -0.25509        1.49658        0.82446
H         -1.66805        2.47318        0.71940
H         -0.79092       -1.14634        1.59464
H         -2.12114       -1.32252        2.72646
H         -2.46671       -1.31147        1.00985
H         -1.39563        2.23374        3.23588
H         -1.68421        0.66526        4.00203
H         -0.20263        0.93245        3.07834
H         -3.65794        2.06406        1.98363
H         -4.08559        0.54518        1.17887
H         -3.87116        0.57867        2.91719
