51

C          1.17898       -0.07301       -0.45165
C          0.73295        1.34592        0.00846
C          1.41946        2.30874       -1.00120
C         -0.81423        1.43259       -0.04837
C         -1.47775        2.58605       -0.49234
C         -2.88410        2.70673       -0.50918
Br        -3.47274        4.36017       -1.24722
C         -3.69099        1.65828       -0.04615
O         -5.04999        1.59162        0.07588
C         -5.88977        2.72429        0.25678
C         -6.03831        3.25983        1.69011
Br        -4.31457        3.56181        2.58982
C         -6.76819        4.59912        1.71828
Br        -8.65742        4.39843        1.29391
C         -3.02867        0.48095        0.36004
Br        -4.00408       -1.05999        0.93086
C         -1.62803        0.37528        0.37921
C          1.24094        1.71643        1.42218
C          2.09100        0.88739        2.16592
C          2.55432        1.23154        3.45636
Br         3.79685       -0.03298        4.15440
C          2.13489        2.41916        4.07140
O          2.38860        2.89104        5.32872
C          2.73812        2.06965        6.43393
C          1.58792        1.38547        7.19109
Br         0.32702        0.43740        6.01686
C          2.10694        0.34678        8.18035
Br         2.97255        1.18322        9.71031
C          1.32717        3.28061        3.30114
Br         0.75634        4.97650        3.96903
C          0.89312        2.93991        2.01104
H          0.74808       -0.32597       -1.42803
H          0.88359       -0.86111        0.24987
H          2.26954       -0.13786       -0.55439
H          1.06185        2.12982       -2.02265
H          1.25053        3.36639       -0.77194
H          2.50770        2.16841       -1.00153
H         -0.89571        3.44217       -0.82915
H         -5.72151        3.50281       -0.47963
H         -6.88242        2.34965       -0.02772
H         -6.53227        2.51250        2.32072
H         -6.74526        5.06835        2.70692
H         -6.35577        5.30938        0.99307
H         -1.18638       -0.54791        0.74514
H          2.42640       -0.05799        1.74621
H          3.57522        1.41120        6.22474
H          3.18026        2.78038        7.14569
H          0.96240        2.13921        7.68180
H          1.30600       -0.26678        8.60470
H          2.84614       -0.32264        7.72657
H          0.26644        3.64710        1.47163
