96

O          1.16030        0.08346       -0.22144
C          2.38200        0.09302       -0.09083
N          3.15427       -0.94946       -0.57753
C          4.54793       -1.15249       -0.45704
C          5.19642       -1.55412       -1.63417
C          6.58870       -1.54454       -1.71620
C          7.34413       -1.13211       -0.62211
C          6.71061       -0.80956        0.58463
C          5.31859       -0.88827        0.69515
C          4.72609       -0.82053        2.05486
O          3.60631       -1.26009        2.28478
C          5.52339       -0.27300        3.16896
C          4.91430       -0.02561        4.40663
C          5.66315        0.49615        5.46274
C          7.01784        0.77558        5.28458
C          7.62837        0.51823        4.05548
C          6.87940       -0.01643        2.99948
C          7.53497       -0.34500        1.72111
O          8.74681       -0.21607        1.59593
C          3.03233        1.29829        0.47931
C          4.07866        1.93443       -0.19483
C          4.79629        2.95010        0.43886
C          4.46007        3.37607        1.73581
C          5.30537        4.35365        2.44554
C          5.78690        5.50734        1.81115
C          6.64522        6.39123        2.47630
C          7.05042        6.15816        3.79462
N          7.89995        7.11588        4.38455
N          8.25413        6.83533        5.54784
C          8.96287        7.89510        6.15168
C          9.92280        7.59762        7.12026
C         10.59168        8.61851        7.81443
C         10.33145        9.97693        7.55820
C         10.98025       11.06326        8.33612
C         12.25545       10.91722        8.91438
C         12.81395       11.91637        9.72570
C         12.11516       13.10038        9.96303
C         12.69928       14.11419       10.88375
O         13.90444       14.35150       10.80968
N         11.90051       14.87117       11.72563
C         10.52906       14.73030       12.02713
C          9.78784       15.92099       11.98503
C          8.39413       15.88823       11.98563
C          7.73157       14.66522       12.03509
C          8.46192       13.47656       12.16701
C          9.85857       13.50674       12.23379
C         10.57073       12.26101       12.61501
O         11.72459       12.28629       13.02395
C          9.85755       10.97073       12.56082
C         10.56175        9.77746       12.76850
C          9.89484        8.55282       12.70901
C          8.52731        8.51620       12.43907
C          7.82136        9.70506       12.24733
C          8.48833       10.93454       12.31906
C          7.73261       12.19091       12.17244
O          6.51565       12.16939       12.03261
C         10.90320       13.31294        9.30495
C         10.32727       12.29268        8.54364
C          9.38374       10.25935        6.55857
C          8.70012        9.24216        5.88362
C          6.56097        5.01566        4.43754
C          5.70249        4.13094        3.77365
C          3.33212        2.79792        2.34758
C          2.61725        1.76970        1.72441
H          2.64102       -1.52225       -1.23720
H          4.62350       -1.80409       -2.52534
H          7.08270       -1.81518       -2.64703
H          8.42861       -1.07621       -0.70737
H          3.85666       -0.24061        4.55072
H          5.18866        0.68533        6.42324
H          7.60204        1.18752        6.10462
H          8.68874        0.72868        3.92660
H          4.37137        1.61622       -1.19200
H          5.65396        3.37919       -0.07655
H          5.49744        5.73566        0.78742
H          7.00325        7.27740        1.95701
H         10.14365        6.55900        7.35437
H         11.30227        8.32428        8.58369
H         12.84076       10.01539        8.74744
H         13.78908       11.76084       10.18370
H         12.36603       15.72559       12.00899
H         10.28686       16.88057       11.86078
H          7.82618       16.81201       11.89682
H          6.64397       14.64082       11.97831
H         11.62927        9.79929       12.98160
H         10.44249        7.62802       12.87620
H          8.00747        7.56205       12.38780
H          6.75150        9.66954       12.04917
H         10.37534       14.25813        9.39138
H          9.33922       12.47740        8.12731
H          9.14483       11.28454        6.28613
H          7.94511        9.51526        5.15043
H          6.84306        4.79698        5.46394
H          5.36186        3.24700        4.30695
H          3.01506        3.12546        3.33617
H          1.77977        1.29708        2.23360
