22

C          0.21425        0.01509       -0.21127
O          0.86792       -0.73316       -1.23705
C          1.17612        0.04553       -2.31946
C          0.14065        0.36019       -3.21299
C          0.41021        1.07119       -4.38406
C          1.72044        1.45736       -4.66546
C          2.03786        2.18850       -5.90878
O          1.17994        2.47918       -6.73044
C          2.75452        1.13767       -3.78311
C          2.49586        0.42253       -2.60549
O          3.63407        0.16866       -1.89022
C          3.51388       -0.35151       -0.57588
H         -0.85077       -0.23180       -0.20142
H          0.34953        1.09866       -0.30801
H          0.64516       -0.29471        0.74656
H         -0.87492        0.02787       -3.01227
H         -0.39355        1.30427       -5.07980
H          3.09663        2.46037       -6.06299
H          3.77889        1.42907       -4.00400
H          2.96453        0.33995        0.06995
H          3.07795       -1.35434       -0.57425
H          4.52355       -0.44310       -0.16395
