36

C         -5.75448        0.37484        0.02628
C         -5.10418        1.59642       -0.03028
C         -3.70600        1.64126       -0.04880
C         -2.90152        0.46992       -0.01380
C         -3.59887       -0.75892        0.03314
C         -5.00449       -0.79637        0.05697
C         -2.88447       -1.95089        0.05730
C         -1.48981       -1.94747        0.03170
C         -0.72556       -0.75961       -0.00802
C         -1.45400        0.46122       -0.02125
C         -0.69954        1.64458       -0.03536
C          0.69688        1.64572       -0.02457
C          1.45312        0.46335       -0.01532
C          2.90046        0.47419        0.00291
C          3.70232        1.64672        0.05200
C          5.10055        1.60364        0.07082
C          5.75356        0.38264        0.03659
C          5.00607       -0.78958       -0.01120
C          3.60027       -0.75395       -0.02321
C          2.88807       -1.94687       -0.05908
C          1.49317       -1.94543       -0.05452
C          0.72673       -0.75854       -0.02575
H         -6.83972        0.33050        0.04458
H         -5.67706        2.51955       -0.05972
H         -3.25378        2.62747       -0.09547
H         -5.52923       -1.74875        0.09973
H         -3.40162       -2.90743        0.09587
H         -1.01368       -2.92301        0.05626
H         -1.17994        2.61858       -0.04464
H          1.17595        2.62038       -0.02991
H          3.24775        2.63244        0.08532
H          5.67131        2.52753        0.11380
H          6.83893        0.33957        0.04987
H          5.53290       -1.74149       -0.03539
H          3.40711       -2.90283       -0.08525
H          1.01873       -2.92169       -0.08189
