24

C          0.95512       -0.04802        0.02233
C          0.29425       -1.15896       -0.32928
C         -1.20239       -1.27645       -0.39467
C         -1.68901       -1.58945       -1.78895
C         -2.07084       -0.56465       -2.65936
C         -2.49652       -0.86320       -3.95489
C         -2.53524       -2.19001       -4.39946
O         -2.95996       -2.42862       -5.67758
C         -2.14729       -3.23099       -3.54964
O         -2.11158       -4.57526       -3.80484
C         -2.45413       -5.02035       -5.10825
C         -1.72882       -2.91466       -2.24883
H          0.43611        0.86836        0.28402
H          2.04056       -0.03608        0.04922
H          0.86427       -2.05112       -0.58191
H         -1.52920       -2.06808        0.29127
H         -1.68553       -0.35809       -0.03697
H         -2.03573        0.47264       -2.33375
H         -2.79103       -0.04503       -4.60554
H         -3.17348       -1.58275       -6.10307
H         -3.50452       -4.81302       -5.33479
H         -1.77886       -4.60528       -5.86317
H         -2.32902       -6.10775       -5.12763
H         -1.42259       -3.72388       -1.58802
