26

O          1.22098        0.23881       -0.53043
C          2.37010        0.04440       -0.14764
N          2.89241        0.73260        0.90327
C          3.90603        0.24321        1.68290
O          3.95373        0.52260        2.87676
C          4.93524       -0.61255        0.94885
C          5.84668        0.30288        0.09451
C          6.85003        1.09962        0.92679
C          7.69391        0.18891        1.80790
C          6.82115       -0.66613        2.71628
C          5.77765       -1.46011        1.92794
C          4.18818       -1.52707       -0.01929
O          4.50181       -2.68967       -0.25864
N          3.13548       -0.94855       -0.67725
H          2.22173        1.31481        1.38810
H          6.40309       -0.31023       -0.62836
H          5.25486        1.00732       -0.50391
H          6.32038        1.83057        1.54959
H          7.50515        1.67029        0.25856
H          8.37810        0.79254        2.41534
H          8.31449       -0.46036        1.17772
H          6.33095       -0.02640        3.45821
H          7.45375       -1.36130        3.28080
H          5.12116       -1.98647        2.63294
H          6.31377       -2.24256        1.37394
H          2.64931       -1.55048       -1.32913
