26

C          3.31790       -1.22003       -0.19235
C          2.00045       -0.49718       -0.05282
N          0.93570       -1.36239       -0.02886
C         -0.26091       -0.86720        0.00367
C         -1.42399       -1.79821       -0.03766
C         -2.67029       -1.30977       -0.02856
C         -2.89450        0.11005        0.03629
C         -1.85200        0.94684        0.09844
N         -0.54017        0.48583        0.07729
C          0.50015        1.38912        0.20470
O          0.34849        2.57931        0.48938
C          1.87518        0.84317        0.00632
C          2.99359        1.85658       -0.06234
C          3.27629        2.34934       -1.48387
Cl         2.07121        3.51811       -2.07264
H          3.50844       -1.81927        0.70522
H          3.28573       -1.89807       -1.05252
H          4.17472       -0.56011       -0.33996
H         -1.21013       -2.85855       -0.08110
H         -3.53068       -1.96989       -0.06276
H         -3.91405        0.48138        0.04421
H         -1.99439        2.02320        0.15903
H          2.80107        2.70355        0.60732
H          3.91519        1.41276        0.33097
H          4.24407        2.85869       -1.51428
H          3.30709        1.52223       -2.19998
