38

O          0.90181        0.09241        0.17643
C          2.12922        0.11841        0.12418
O          2.80715       -0.38427       -0.93517
C          4.20535       -0.71046       -0.91983
C          5.11441        0.41234       -1.40168
O          6.41979        0.24356       -1.13006
N          4.64753        1.43468       -2.00307
C          5.39024        2.62210       -2.42428
C          4.29400        3.69892       -2.59081
C          4.81625        5.11755       -2.76011
C          5.79281        5.47852       -1.65169
C          6.95319        4.49663       -1.63649
C          6.47034        3.06438       -1.42553
C          2.88389        0.64633        1.27954
C          3.73192        1.74739        1.14772
C          4.44349        2.22149        2.24973
C          4.26011        1.63241        3.49923
C          3.35884        0.57714        3.64933
C          2.66936        0.08182        2.54057
H          4.51352       -1.05322        0.07295
H          4.34034       -1.55027       -1.61044
H          6.60697       -0.55806       -0.61691
H          5.85097        2.44179       -3.40343
H          3.65564        3.44027       -3.44537
H          3.63331        3.68294       -1.71288
H          3.97350        5.81851       -2.74866
H          5.30487        5.21790       -3.73594
H          5.28018        5.46224       -0.68135
H          6.16617        6.49716       -1.80128
H          7.65400        4.76599       -0.83811
H          7.50514        4.56367       -2.58199
H          6.10022        2.96665       -0.39909
H          7.34490        2.40932       -1.50801
H          3.82540        2.25865        0.19612
H          5.12256        3.06353        2.13563
H          4.79895        2.01575        4.36267
H          3.18344        0.15036        4.63386
H          1.95091       -0.72571        2.66330
