18

Cl         3.22551        0.42911       -0.01951
C          1.56889       -0.03818       -0.01288
C          1.23376       -1.38872       -0.00766
C         -0.10990       -1.76830       -0.00161
C         -1.12752       -0.80029       -0.00102
C         -2.48311       -1.16527        0.00547
C         -3.48370       -0.19207        0.00534
C         -3.14256        1.15725       -0.00141
C         -1.79972        1.53779       -0.00747
C         -0.78048        0.57189       -0.00714
C          0.57464        0.93925       -0.01276
H          2.00927       -2.14976       -0.00815
H         -0.35779       -2.82757        0.00255
H         -2.77106       -2.21427        0.01075
H         -4.52942       -0.48874        0.01043
H         -3.92156        1.91538       -0.00189
H         -1.55452        2.59771       -0.01258
H          0.85647        1.98929       -0.01697
