34

C          0.71802       -0.06137        0.13283
C          0.46014       -0.47122       -1.30586
O          1.02893       -1.76202       -1.57309
C          2.35840       -1.76090       -1.85182
O          3.07851       -0.77575       -1.92781
C          2.81988       -3.13332       -2.09168
C          2.24933       -3.86895       -3.05737
N          2.66165       -5.12296       -3.46839
C          1.91217       -5.83927       -4.52239
C          1.06134       -5.20218       -5.59195
C          2.39303       -5.78223       -5.95291
C          3.78815       -5.72691       -2.83434
C          4.28385       -6.98401       -3.21374
C          5.37538       -7.54197       -2.54893
F          5.82578       -8.74503       -2.93035
C          5.99123       -6.86780       -1.50276
F          7.03312       -7.41870       -0.86624
C          5.53365       -5.61959       -1.10938
C          4.44078       -5.05048       -1.77818
C          3.95895       -3.71268       -1.35375
O          4.47345       -3.14466       -0.39752
H          0.34213       -0.82337        0.82317
H          0.23058        0.89157        0.35713
H          1.78994        0.04337        0.32827
H         -0.61817       -0.55681       -1.47500
H          0.83749        0.27800       -2.01170
H          1.40595       -3.46863       -3.61089
H          1.53452       -6.79447       -4.15927
H          0.17341       -5.74012       -5.90840
H          0.95728       -4.12713       -5.65261
H          3.18674       -5.08641       -6.20242
H          2.41236       -6.70228       -6.52376
H          3.84243       -7.55228       -4.02544
H          6.02510       -5.10109       -0.29041
