41

C          0.82970       -0.06498        0.15791
O          0.21322       -0.56356       -1.02355
C          0.52259        0.08576       -2.18768
C         -0.48165        0.02433       -3.16023
C         -0.30942        0.61577       -4.41777
Br        -1.75396        0.50161       -5.64407
C          0.88282        1.27730       -4.73207
C          1.16986        1.88868       -6.08042
N          1.43256        0.92317       -7.14781
C          0.89796        1.14728       -8.40519
O          1.14280        0.49923       -9.41190
C          2.41342       -0.16111       -6.98262
C          3.87285        0.20357       -7.31724
C          4.56511        0.98274       -6.22203
C          5.05978        0.32862       -5.08163
C          5.57534        1.06172       -4.00861
C          5.58210        2.45103       -4.07398
O          5.95841        3.21201       -3.00820
C          5.15278        3.11206       -5.21914
C          4.66338        2.37795       -6.30032
C          1.87372        1.35207       -3.73984
C          1.71232        0.74325       -2.49365
O          2.75660        0.78542       -1.61302
H          0.26225       -0.44840        1.01154
H          0.79548        1.02909        0.20600
H          1.85185       -0.44174        0.25644
H         -1.40955       -0.49004       -2.92053
H          0.33975        2.54863       -6.36028
H          2.03286        2.55762       -6.02539
H          0.18958        1.99335       -8.42754
H          2.32334       -0.58619       -5.97839
H          2.11813       -0.96140       -7.67360
H          4.43803       -0.72557       -7.47199
H          3.92902        0.75053       -8.26598
H          5.01801       -0.75702       -5.01083
H          5.92928        0.53469       -3.12781
H          6.27695        2.63398       -2.29572
H          5.17098        4.19766       -5.26176
H          4.30928        2.90370       -7.18490
H          2.79071        1.88716       -3.95815
H          3.50593        1.22780       -2.04500
