121

C          2.41403        0.46185        0.64298
C          1.86830        0.22493        2.04147
C          1.56136        1.48221        2.85540
C          0.58430        2.55479        2.31616
C         -0.94946        2.28864        2.36769
C         -1.41887        1.71033        3.86275
C         -0.95145        2.15165        5.35190
C         -0.09876        1.35751        6.16199
C          0.15416        1.65549        7.55190
C          1.04019        0.79457        8.48865
C          0.15802       -0.30234        9.10552
C          2.23066        0.19216        7.72728
C          1.70314        1.58543        9.66918
C         -0.44693        2.79493        8.09978
O         -0.66917        2.84993        9.44802
C         -1.05039        3.76181        7.33304
C         -1.08400        5.24966        7.86673
C         -0.10694        6.13336        7.01881
C         -2.52154        5.75753        8.04253
C         -0.47394        5.53615        9.27930
C         -1.48011        3.27970        6.05206
C         -1.83105        3.50636        1.83282
O         -3.03732        3.34559        1.63813
O         -1.20089        4.72199        1.61296
C         -2.03158        5.95546        1.40884
C         -1.26493        7.32270        1.57025
C         -1.26085        8.07978        2.99346
C         -1.66873        9.56755        2.79313
C          0.20173        8.11402        3.52228
N         -2.24409        7.56449        3.96620
C         -2.41235        8.22434        5.24745
C         -2.70076        6.19359        3.80056
C         -3.88338        5.70204        4.65905
C         -1.47320        5.34137        4.06984
C         -3.20410        6.06164        2.36187
C         -1.29600        1.34858        1.14620
O         -0.81872        1.55163        0.03919
O         -2.30954        0.46416        1.36211
C         -3.09589       -0.05075        0.23593
C         -3.99310       -1.18101        0.73871
C         -3.18405       -2.43062        1.17916
C         -4.22311       -3.57163        1.35657
C         -2.57557       -2.16226        2.57794
N         -2.20123       -2.89505        0.15518
C         -1.26535       -3.90545        0.67352
C         -1.54390       -1.88925       -0.72599
C         -1.24512       -2.54685       -2.10063
C         -0.19359       -1.41744       -0.19236
C         -2.41229       -0.64057       -1.00333
H          1.72959        1.04431        0.02365
H          2.58519       -0.49628        0.13710
H          3.37373        0.98477        0.68051
H          0.98883       -0.41299        2.02781
H          2.62098       -0.36187        2.58611
H          1.22759        1.14076        3.83362
H          2.52191        1.98009        3.03380
H          0.76765        3.45493        2.91476
H          0.89300        2.82646        1.29896
H         -2.51657        1.76392        3.88696
H         -1.20250        0.63171        3.82541
H          0.30838        0.43737        5.74901
H         -0.19387       -1.00796        8.34723
H          0.70227       -0.86336        9.87285
H         -0.73061        0.12516        9.58918
H          2.81729        0.98458        7.24522
H          2.90239       -0.34074        8.41107
H          1.91996       -0.52202        6.96245
H          2.09663        2.55564        9.33958
H          1.01474        1.75232       10.50640
H          2.53373        1.03283       10.12076
H          0.05833        3.36485        9.82665
H         -0.52447        6.60793        6.14537
H          0.28483        6.99772        7.56897
H          0.76570        5.55092        6.69425
H         -3.16813        4.97550        8.45651
H         -2.58196        6.62070        8.71662
H         -2.97782        6.10481        7.13638
H         -1.05813        5.09165       10.08829
H          0.57546        5.22715        9.33832
H         -0.48008        6.61770        9.48829
H         -2.33745        3.76667        5.61282
H         -2.39117        5.88872        0.37618
H         -1.77610        8.00715        0.87816
H         -0.24046        7.20738        1.20217
H         -1.18571       10.00958        1.91919
H         -2.75457        9.66788        2.67063
H         -1.38605       10.18747        3.65554
H          0.69711        7.14067        3.49399
H          0.81125        8.78671        2.90550
H          0.27482        8.48371        4.55074
H         -2.26221        7.56043        6.08830
H         -1.70851        9.04245        5.42743
H         -3.42233        8.63156        5.34096
H         -4.32853        4.78957        4.23928
H         -3.59227        5.38560        5.64681
H         -4.67311        6.44898        4.75314
H         -1.18231        5.37909        5.09072
H         -1.69840        4.31131        3.86523
H         -0.55744        5.58438        3.53270
H         -3.82906        6.93178        2.11393
H         -3.88888        5.22133        2.25261
H         -3.74260        0.77616       -0.08686
H         -4.69638       -1.46370       -0.06008
H         -4.61224       -0.81678        1.56812
H         -5.07745       -3.23864        1.95721
H         -4.61308       -3.91037        0.38903
H         -3.79951       -4.44373        1.86649
H         -1.71203       -1.49598        2.54008
H         -3.31769       -1.70135        3.24173
H         -2.24578       -3.08324        3.06890
H         -0.65299       -4.34119       -0.12120
H         -0.58295       -3.49122        1.42518
H         -1.78757       -4.74961        1.13066
H         -0.87841       -1.80207       -2.81883
H         -0.46833       -3.31699       -2.03200
H         -2.13905       -3.00950       -2.53185
H          0.56426       -2.20503       -0.15313
H          0.21944       -0.62253       -0.82221
H         -0.33090       -1.03833        0.81200
H         -3.20235       -0.92127       -1.71914
H         -1.83380        0.12450       -1.53235
