27

C          0.91305        0.08226       -0.18430
C          0.39413       -0.38246        1.17009
C          0.83075        0.51386        2.34620
C          0.30741        1.94704        2.18699
C          0.34281       -0.04846        3.70035
C          0.90083       -1.42182        4.09631
C          2.42901       -1.51400        4.18005
C          3.07320       -0.56373        5.18461
O          2.64298       -0.85096        6.50731
H          0.47134        1.03759       -0.48123
H          0.65437       -0.65146       -0.95491
H          2.00221        0.18901       -0.17152
H         -0.70043       -0.44287        1.13183
H          0.76174       -1.40225        1.32608
H          1.92570        0.56959        2.35858
H         -0.78426        1.96388        2.10111
H          0.58868        2.56120        3.04948
H          0.72855        2.43055        1.30046
H          0.58037        0.66784        4.49653
H         -0.75286       -0.12005        3.68268
H          0.46936       -1.70121        5.06541
H          0.54360       -2.18135        3.39157
H          2.67985       -2.54325        4.46614
H          2.86842       -1.34732        3.19067
H          4.16052       -0.68829        5.15979
H          2.85847        0.48518        4.95996
H          1.70335       -0.61031        6.57269
