21

C          1.03896        0.20120       -0.06183
C          0.41952       -0.84799        0.49488
C         -1.06835       -1.06677        0.49164
C         -1.47678       -2.29746       -0.28570
C         -2.21425       -2.17920       -1.47751
C         -2.58805       -3.31392       -2.20606
C         -2.21609       -4.56950       -1.74293
O         -2.54083       -5.71493       -2.41612
C         -1.48903       -4.69611       -0.56315
O         -1.12238       -5.93399       -0.11738
C         -1.12279       -3.57696        0.17094
H          0.49148        0.98248       -0.57852
H          2.12013        0.29160       -0.01465
H          1.02211       -1.59934        1.00168
H         -1.41958       -1.16927        1.52594
H         -1.58226       -0.18478        0.08827
H         -2.50075       -1.19635       -1.84657
H         -3.15823       -3.19395       -3.12129
H         -3.03118       -5.46294       -3.21721
H         -1.47270       -6.54776       -0.79307
H         -0.55620       -3.70487        1.08892
