40

C          0.56311       -0.24324        0.20065
C          0.66562        1.27187        0.28203
O          1.02351        1.83777       -0.98784
C          2.34850        2.14931       -1.09548
C          2.68705        3.45547       -1.43139
C          4.03463        3.82938       -1.53827
C          5.04863        2.91597       -1.25362
N          6.41938        3.20672       -1.12029
C          7.17348        4.35240       -0.99279
O          8.39696        4.24521       -0.96597
C          6.58953        5.70179       -0.88834
C          7.12949        6.66769       -1.74856
C          6.51203        7.91508       -1.89619
C          7.01249        8.86962       -2.79342
C          6.30677       10.04645       -3.03925
C          5.09846       10.28064       -2.38868
C          4.62556        9.37037       -1.44128
C          5.33563        8.19202       -1.16493
C          4.90218        7.27771       -0.19027
C          5.55246        6.05502       -0.02498
O          5.07269        5.24890        0.96954
C          4.69070        1.57854       -1.04576
C          3.35023        1.19531       -0.97361
H          0.23851       -0.56965       -0.79194
H         -0.13180       -0.62677        0.95332
H          1.53261       -0.70941        0.40088
H         -0.32543        1.67230        0.52490
H          1.33651        1.58852        1.09205
H          1.90656        4.19501       -1.59408
H          4.24141        4.84834       -1.84143
H          7.03301        2.39806       -1.09759
H          8.00587        6.41950       -2.34591
H          7.94733        8.69404       -3.32179
H          6.69148       10.76953       -3.75366
H          4.52520       11.17591       -2.61455
H          3.68373        9.57546       -0.93723
H          4.03451        7.49944        0.42697
H          5.55403        4.40283        0.96176
H          5.44971        0.81335       -0.90330
H          3.11097        0.15006       -0.82209
