54

C          0.41377       -0.42218        0.42638
C          0.39026       -0.45185       -1.11244
C         -1.07110       -0.57732       -1.59770
C         -1.81589        0.73955       -1.58609
O         -2.99487        0.80520       -1.23369
C         -1.10885        1.93816       -2.16784
C          0.29782        2.04372       -1.57450
C          0.97303        3.33802       -2.03338
C          2.35602        3.49063       -1.41534
C          3.25290        2.29374       -1.75586
C          4.73590        2.52720       -1.37025
C          5.02575        3.51702       -0.23688
C          6.49878        3.27035        0.06503
C          6.59797        1.74886        0.06417
O          6.22922        1.27589        1.35763
C          5.62791        1.27701       -1.06913
C          6.47170        0.97759       -2.33339
C          4.84510        0.00563       -0.68423
C          3.56974       -0.18603       -1.49189
C          2.60907        0.98384       -1.22861
C          1.15174        0.74910       -1.81189
C          1.25905        0.40104       -3.32768
H         -0.20844       -1.22460        0.83918
H          0.03938        0.51815        0.83855
H          1.42553       -0.58628        0.80884
H          0.88508       -1.38996       -1.39723
H         -1.10630       -0.96527       -2.62147
H         -1.62243       -1.29156       -0.97481
H         -1.68920        2.83478       -1.92170
H         -1.09958        1.85234       -3.25905
H          0.16984        2.15771       -0.48962
H          0.36076        4.19535       -1.72466
H          1.04349        3.37753       -3.12568
H          2.80265        4.42410       -1.77472
H          2.25052        3.58243       -0.32582
H          3.27390        2.21954       -2.85088
H          5.16194        3.02562       -2.25742
H          4.40466        3.31856        0.64197
H          4.86545        4.55560       -0.54534
H          6.79154        3.72220        1.01710
H          7.12146        3.69267       -0.73318
H          7.62854        1.42097       -0.10381
H          5.34989        1.62617        1.57861
H          5.83747        0.77653       -3.20290
H          7.12310        1.82225       -2.58819
H          7.11943        0.10729       -2.17853
H          4.54801        0.01795        0.36947
H          5.48499       -0.87847       -0.80013
H          3.11548       -1.13658       -1.19521
H          3.81470       -0.26700       -2.55670
H          2.51364        1.10291       -0.14100
H          0.28692        0.30516       -3.81664
H          1.81618        1.14967       -3.89482
H          1.75930       -0.56359       -3.47249
