9

S          1.10051       -0.58960        0.40625
C          0.45576        0.12792        1.85850
N         -0.17647       -0.58260        2.76575
N         -0.58290        0.19470        3.83658
C         -0.24583        1.45556        3.68075
S         -0.63188        2.67009        4.87051
S          0.59471        1.79479        2.22738
H          1.80628        0.47028       -0.00782
H         -0.15664        3.72514        4.19677
