17

O          1.16953        0.26997        0.43987
N          2.32217       -0.00315        0.07592
O          2.95606       -1.00752        0.43027
C          2.98129        0.92655       -0.84372
C          4.06462        0.48725       -1.61207
C          4.68185        1.37552       -2.49586
C          4.23229        2.70223       -2.61106
C          4.89747        3.65433       -3.56421
Br         6.63604        4.17611       -2.86984
C          3.14825        3.12639       -1.82561
C          2.51734        2.24287       -0.94598
H          4.43379       -0.53350       -1.53664
H          5.52484        1.02855       -3.09223
H          5.05172        3.19521       -4.54491
H          4.32445        4.57709       -3.69417
H          2.78570        4.15101       -1.89409
H          1.67718        2.59258       -0.34939
