10

C          0.35108        1.06663       -0.07157
C          0.97157       -0.30043        0.19909
O         -0.32380       -0.94402        0.13654
C         -0.98062        0.34601        0.11392
H          0.52229        1.45069       -1.08078
H          0.57405        1.83755        0.66900
H          1.64870       -0.66970       -0.57539
H          1.42684       -0.42330        1.18633
H         -1.49521        0.54431        1.05885
H         -1.68106        0.43291       -0.72066
