22

Cl        -2.75410        0.27833        0.07248
C         -1.20968       -0.50035        0.03171
C         -1.19228       -1.88383        0.21856
C          0.01539       -2.57977        0.20890
C          1.23337       -1.90989       -0.00724
C          2.49437       -2.69517       -0.00883
C          3.35309       -2.69711        1.11812
Cl         2.87717       -1.81450        2.54815
C          4.56674       -3.41221        1.10619
Cl         5.62088       -3.36288        2.49266
C          4.92473       -4.16609       -0.02491
Cl         6.41623       -5.06771       -0.03608
C          4.07508       -4.19809       -1.14448
Cl         4.49777       -5.16009       -2.53465
C          2.87619       -3.45809       -1.13872
Cl         1.83933       -3.47025       -2.54358
C          1.20406       -0.50848       -0.21528
Cl         2.70204        0.32622       -0.53207
C         -0.01340        0.19972       -0.18195
Cl        -0.04180        1.92424       -0.39792
H         -2.12215       -2.42881        0.37399
H         -0.00222       -3.65879        0.36104
