40

C          2.25339       -0.08550        0.33686
C          0.77342       -0.05776        0.27471
N          0.11157        1.14790        0.34462
C         -1.15946        0.86217        0.20661
N         -1.35343       -0.47839        0.05216
C         -0.12620       -1.09543        0.09183
C          0.07615       -2.54566       -0.15364
N         -0.32119       -3.36916        0.97471
C         -1.74621       -3.58125        1.26918
C         -2.14138       -5.06653        1.28739
C         -1.11481       -5.79820        2.07329
C          0.17476       -5.33942        2.27573
C          0.84648       -6.33001        3.05093
C          2.15284       -6.44396        3.57252
C          2.52600       -7.59560        4.27284
C          1.62078       -8.63470        4.45543
C          0.31908       -8.54971        3.95340
C         -0.05398       -7.38809        3.25435
N         -1.24048       -7.03882        2.63698
C         -2.42139       -7.86829        2.53410
C          0.66633       -4.10502        1.65406
O          1.85912       -3.81405        1.63045
H          2.67302        0.36896       -0.56673
H          2.60800        0.48207        1.20237
H          2.64031       -1.10479        0.41698
H         -1.97273        1.57528        0.19937
H         -2.24677       -0.92251       -0.09801
H         -0.51135       -2.87041       -1.02074
H          1.12353       -2.73988       -0.40856
H         -2.36886       -3.04785        0.54572
H         -1.92619       -3.13969        2.25837
H         -2.15590       -5.45738        0.26353
H         -3.14249       -5.18033        1.71494
H          2.86989       -5.64007        3.42452
H          3.53466       -7.67865        4.66938
H          1.92970       -9.52882        4.99206
H         -0.37049       -9.37424        4.10044
H         -3.21938       -7.40061        3.11582
H         -2.70456       -7.93584        1.47977
H         -2.22245       -8.87134        2.91364
