58

C          2.51324        0.53992        0.12582
C          1.06054        0.31768        0.16250
C          0.28526       -0.78579        0.39177
C         -1.02716       -0.38709        0.03523
C         -2.23391       -1.19776       -0.12648
O         -3.36716       -0.76766        0.09233
N         -2.12869       -2.49440       -0.58406
C         -0.97690       -3.26703       -1.05618
C         -0.44191       -4.25898       -0.00173
C         -1.37985       -5.39862        0.36262
C         -2.83875       -5.59342       -0.56775
C         -4.25610       -6.35977        0.06031
C         -4.20996       -7.14282        1.66116
S         -5.47904       -8.61949        1.27512
O         -6.57203       -8.49659        2.21435
O         -5.80227       -8.49491       -0.13767
N         -4.92390      -10.18008        1.36302
C         -3.72897      -10.73581        0.90927
O         -3.69375      -11.90434        0.54367
N         -2.58489      -10.00105        1.02688
N         -2.54491       -8.87467        1.82865
C         -3.31973       -9.04463        3.31580
C         -4.36700       -7.93816        4.19982
C         -4.33791       -6.28789        4.28713
C         -4.34755       -5.26944        3.02492
C         -3.18235       -5.41087        1.62412
C         -2.46107       -7.33202        0.82668
C         -2.60125       -6.90080        2.69910
C         -1.18114       -6.08824        1.97008
N         -1.05458        0.93869       -0.19351
O          0.25841        1.36927       -0.13606
H          2.78957        1.09470       -0.77601
H          2.85002        1.09393        1.00425
H          3.04175       -0.41958        0.09662
H          0.64629       -1.75976        0.66986
H         -3.05039       -2.90374       -0.68810
H         -1.28903       -3.79087       -1.96511
H         -0.18629       -2.58292       -1.36924
H          0.52264       -4.66847       -0.31077
H         -0.29311       -3.70554        0.93307
H         -2.95982       -5.08928       -1.52481
H         -5.15867       -6.38320       -0.54598
H         -5.69453      -10.83910        1.29765
H         -1.72759      -10.53194        0.90064
H         -2.48667       -9.26283        4.00106
H         -3.86644       -9.99368        3.33918
H         -4.23422       -8.25682        5.24368
H         -5.40100       -8.20527        3.99953
H         -5.21765       -6.00245        4.88052
H         -3.48647       -6.00421        4.92536
H         -5.35615       -5.20541        2.59317
H         -4.14180       -4.26297        3.42400
H         -3.62448       -4.60577        0.98263
H         -2.46175       -4.69550        2.12690
H         -2.93241       -7.79239       -0.08284
H         -1.40764       -7.47707        0.47325
H         -2.28735       -7.27245        3.67399
H         -0.26285       -5.95985        2.53612
