31

C          0.89518       -0.06314        0.22319
C          0.43235        1.32973       -0.17975
C          0.98214        1.76880       -1.53186
C          0.27907        1.07953       -2.67541
O         -0.75376        1.49393       -3.18965
O          0.97066       -0.07913       -3.00710
C          0.37285       -0.83448       -4.01750
C         -0.18235       -2.06390       -3.67788
C         -0.74456       -2.86566       -4.67614
C         -0.73993       -2.44580       -6.00953
N         -1.29348       -3.18932       -7.07306
C         -1.90563       -4.42689       -7.00691
C         -2.40607       -4.90974       -8.34721
O         -2.06095       -5.11931       -6.00656
C         -0.15548       -1.21096       -6.33222
C          0.41022       -0.40640       -5.34037
H          0.49895       -0.82740       -0.45161
H          0.54532       -0.29852        1.23335
H          1.98776       -0.13091        0.21913
H         -0.66363        1.35702       -0.18587
H          0.76904        2.04023        0.58411
H          0.82645        2.84651       -1.66347
H          2.06353        1.60725       -1.60543
H         -0.18748       -2.40278       -2.64623
H         -1.18062       -3.81365       -4.37714
H         -1.23357       -2.75607       -7.98525
H         -1.90986       -5.85264       -8.59299
H         -3.48667       -5.06628       -8.28669
H         -2.20570       -4.19430       -9.14920
H         -0.13220       -0.85666       -7.35927
H          0.86153        0.54572       -5.60117
