15

O         -1.45149       -2.29963        0.01699
C         -1.08043       -1.14411        0.00807
O         -1.85331       -0.02428       -0.00331
C         -1.10947        1.11507       -0.01189
O         -1.51011        2.26066       -0.02220
C          0.27098        0.68657       -0.00584
C          1.43432        1.43477       -0.01096
C          2.64634        0.73793       -0.00192
C          2.66444       -0.67043        0.01201
C          1.47073       -1.39823        0.01653
C          0.28855       -0.68022        0.00705
H          1.40483        2.52021       -0.02159
H          3.58645        1.28737       -0.00557
H          3.61836       -1.19548        0.01925
H          1.46915       -2.48408        0.02711
