65

C          1.10796        0.30829        0.32027
C          0.76890        0.95868       -1.01325
C          1.18062        0.11664       -2.22485
C          0.56385       -1.28326       -2.27532
C         -0.96323       -1.29753       -2.36256
C         -1.55748       -0.77222       -3.67895
C         -0.96195       -1.32336       -4.98036
C         -1.23392       -2.78042       -5.28372
O         -1.18594       -3.24551       -6.41604
O         -1.50610       -3.49115       -4.16440
C         -1.83709       -4.88007       -4.30744
C         -3.36350       -5.09813       -4.17968
C         -4.11627       -4.30487       -5.26106
C         -3.64274       -6.59781       -4.37540
C         -3.87820       -4.62367       -2.79990
O         -3.23669       -5.34690       -1.73947
C         -3.92653       -6.34352       -1.13701
O         -5.08894       -6.64127       -1.38381
C         -3.10200       -7.05001       -0.08343
C         -1.57830       -6.96581       -0.23623
C         -0.93006       -5.59001       -0.01503
C         -1.36060       -4.85368        1.25471
C         -0.88572       -5.50633        2.55517
C          0.63537       -5.58900        2.71641
C          1.32572       -4.23398        2.65680
H          0.54447       -0.61699        0.47406
H          0.85715        0.98401        1.14372
H          2.17602        0.07716        0.38243
H         -0.30331        1.17980       -1.04887
H          1.28344        1.92502       -1.07215
H          0.92641        0.66535       -3.13941
H          2.27272        0.01178       -2.22539
H          0.99428       -1.83306       -3.11972
H          0.86830       -1.84939       -1.38759
H         -1.30389       -2.32130       -2.18006
H         -1.39446       -0.72113       -1.53619
H         -2.63765       -0.96708       -3.66798
H         -1.44622        0.31923       -3.69493
H         -1.41412       -0.75630       -5.80467
H          0.11752       -1.15565       -5.02912
H         -1.45293       -5.28841       -5.24984
H         -1.30486       -5.41009       -3.50824
H         -3.75135       -4.55881       -6.26193
H         -5.18950       -4.52236       -5.23160
H         -4.00166       -3.22416       -5.12263
H         -3.07356       -7.21046       -3.66764
H         -4.70598       -6.82189       -4.23872
H         -3.35994       -6.92138       -5.38303
H         -3.63813       -3.56499       -2.64337
H         -4.97008       -4.69977       -2.73332
H         -3.42551       -6.70026        0.90084
H         -3.37256       -8.11179       -0.15351
H         -1.13050       -7.67458        0.47160
H         -1.29812       -7.31855       -1.23719
H          0.15848       -5.71647       -0.02797
H         -1.13314       -4.93843       -0.87041
H         -0.98805       -3.82414        1.20479
H         -2.45162       -4.75606        1.28164
H         -1.29805       -4.93616        3.39694
H         -1.30510       -6.51612        2.63615
H          0.85624       -6.05195        3.68540
H          1.06428       -6.25046        1.95596
H          0.91550       -3.55254        3.40874
H          2.39703       -4.34805        2.84873
H          1.21818       -3.76802        1.67261
