22

C          0.90884       -0.03123        0.16715
C          0.62182        1.13624       -0.78340
C          1.46959        0.97320       -2.04529
N         -0.81764        1.12428       -1.04876
C         -1.41015        2.38900       -1.48699
C         -1.24416        2.64632       -2.98495
C         -2.90437        2.31970       -1.15322
H          0.64761       -0.99465       -0.28596
H          0.34156        0.07092        1.09920
H          1.97168       -0.06325        0.43176
H          0.91081        2.05819       -0.26503
H          1.09349        0.16582       -2.68334
H          1.49389        1.89261       -2.63406
H          2.50853        0.73630       -1.79024
H         -1.06599        0.36620       -1.68133
H         -0.98794        3.22880       -0.92247
H         -1.48789        1.75735       -3.57719
H         -1.90298        3.45612       -3.31776
H         -0.22466        2.95217       -3.22910
H         -3.06163        2.16904       -0.07919
H         -3.40715        3.25291       -1.43071
H         -3.40006        1.50083       -1.68753
