27

C          0.74592        0.27292        0.19329
O          0.37820       -0.97645        0.78460
C          0.80230       -2.03063        0.05764
O          1.44227       -1.96772       -0.98744
C          0.46151       -3.34047        0.63349
C         -0.19134       -3.70688        1.74849
C         -0.24743       -5.15967        2.11967
O         -0.68409       -2.83306        2.69569
P         -2.23408       -2.40441        2.89926
O         -2.83124       -1.59106        1.79200
O         -3.03978       -3.77064        3.20243
C         -2.63068       -4.64144        4.23372
O         -2.22614       -1.66072        4.33446
C         -3.41733       -1.01625        4.74215
H          0.32572        1.08308        0.79387
H          0.34665        0.35496       -0.82423
H          1.83656        0.37984        0.18100
H          0.85335       -4.13155       -0.00327
H         -0.06624       -5.29204        3.19082
H         -1.21882       -5.58664        1.85763
H          0.52389       -5.74195        1.60286
H         -2.50372       -5.63938        3.80491
H         -1.69176       -4.32630        4.69502
H         -3.40791       -4.70289        4.99896
H         -3.46365       -0.01107        4.31404
H         -4.29997       -1.58775        4.44212
H         -3.41169       -0.93183        5.83279
