72

C          1.43651       -0.47698       -0.06067
C          0.73733       -0.50408       -1.42003
C          1.23881       -1.68543       -2.25050
C         -0.79570       -0.57340       -1.28040
C         -1.44955        0.65228       -0.63265
C         -1.03616        1.99998       -1.22628
C         -1.32748        2.16999       -2.72474
C         -2.77122        2.55919       -3.04824
C         -3.19933        3.92146       -2.50896
O         -2.50859        5.01705       -3.13235
C         -1.41777        5.48755       -2.48529
O         -0.78112        4.96721       -1.58376
C         -1.11098        6.82978       -2.97939
C          0.09352        7.02985       -3.66297
C          0.43252        8.31088       -4.09877
C         -0.42305        9.38570       -3.84612
C         -1.62391        9.18475       -3.15892
C         -1.96816        7.90366       -2.70956
C         -3.24022        7.73673       -1.97414
O         -4.26969        8.31403       -2.28412
O         -3.04954        6.91587       -0.91727
C         -4.19358        6.54743       -0.13108
C         -4.10660        7.19580        1.24595
C         -4.13660        8.72428        1.20125
C         -5.45793        9.30520        0.68876
C         -6.62940        9.18512        1.66690
C         -6.43399        9.91109        3.00341
C         -6.01324       11.38884        2.88941
C         -7.05398       12.22808        2.14726
C         -5.76158       11.97097        4.28047
H          1.18315       -1.36119        0.53350
H          1.15704        0.41089        0.51500
H          2.52446       -0.45419       -0.18564
H          1.01793        0.40289       -1.96721
H          0.99008       -2.64062       -1.77768
H          0.78878       -1.67052       -3.24923
H          2.32546       -1.63673       -2.37687
H         -1.24399       -0.72650       -2.26947
H         -1.06939       -1.45844       -0.69143
H         -2.53933        0.54533       -0.69408
H         -1.21034        0.66187        0.43809
H         -1.52698        2.78094       -0.63840
H          0.03621        2.15452       -1.06140
H         -0.65358        2.92916       -3.13629
H         -1.08280        1.25277       -3.26949
H         -2.88173        2.56696       -4.13940
H         -3.45127        1.79208       -2.66017
H         -4.26130        4.06827       -2.73808
H         -3.11910        3.97500       -1.41962
H          0.76487        6.19447       -3.84944
H          1.36764        8.47379       -4.63055
H         -0.15062       10.38470       -4.18047
H         -2.28101       10.02970       -2.96109
H         -5.13716        6.76333       -0.64138
H         -4.15363        5.46077       -0.00433
H         -4.91078        6.81344        1.88348
H         -3.15982        6.89444        1.71215
H         -3.91234        9.11096        2.20107
H         -3.32243        9.08305        0.56079
H         -5.29819       10.35702        0.42870
H         -5.75137        8.82431       -0.24852
H         -7.53018        9.57219        1.17562
H         -6.83678        8.12735        1.86858
H         -7.37191        9.84117        3.56966
H         -5.68799        9.36735        3.59616
H         -5.06508       11.45631        2.34357
H         -8.03013       12.17577        2.64052
H         -6.74839       13.27895        2.10880
H         -7.17784       11.89034        1.11364
H         -4.97731       11.40822        4.79814
H         -5.43025       13.01241        4.20941
H         -6.66659       11.94116        4.89552
