20

C         -2.50081       -1.10082       -0.05760
N         -1.24846       -0.35855       -0.01062
C         -1.21940        1.02356       -0.06860
N         -2.37280        1.78570       -0.10981
C         -0.03132        1.64131       -0.08407
C          1.22787        0.89137       -0.02230
O          2.28490        1.51800       -0.00227
N          1.11581       -0.47668        0.01613
C          2.32165       -1.28076        0.04792
C         -0.09587       -1.14952        0.02971
O         -0.15170       -2.38164        0.07577
H         -2.47833       -1.78367       -0.91406
H         -2.59004       -1.69735        0.85694
H         -3.38471       -0.46798       -0.15176
H         -3.09861        1.42691        0.50291
H         -2.21895        2.77658        0.06089
H          0.07165        2.71756       -0.13603
H          2.31663       -1.89603        0.95354
H          2.32650       -1.94675       -0.82140
H          3.22977       -0.67282        0.03415
