49

C          0.91301        0.17426       -0.06813
C          0.57339       -0.64378        1.14533
C         -0.28729       -0.00115        2.19671
C          0.97975       -1.92096        1.28821
C          1.72985       -2.71206        0.30508
C          3.23804       -2.72117        0.24872
C          4.10257       -1.82418        1.05715
O          4.95900       -1.14351        0.50677
O          3.89871       -1.87260        2.39324
C          4.84314       -1.13783        3.17596
N          6.13890       -1.76457        3.15612
C          7.30616       -1.07336        3.22630
O          7.48071        0.12796        3.32406
C          8.37993       -2.06962        3.23054
C          7.81394       -3.27736        3.25423
C          8.54146       -4.56620        3.24142
C         10.04031       -4.34897        3.50982
C         10.59530       -3.10486        2.79539
C          9.83827       -1.81809        3.17356
C          6.36277       -3.09570        3.30675
O          5.57099       -4.00083        3.47565
C          2.48793       -3.96963        0.70456
C          2.48044       -4.45362        2.13547
C          2.42364       -5.12218       -0.27828
H          0.57602        1.21052        0.03327
H          0.43283       -0.24220       -0.95944
H          1.99609        0.20322       -0.22608
H         -1.28548       -0.45245        2.19431
H          0.15328       -0.12308        3.19168
H         -0.40996        1.07248        2.02425
H          0.66134       -2.44607        2.18805
H          1.22134       -2.75035       -0.65728
H          3.64501       -2.78249       -0.76088
H          4.89959       -0.09254        2.84795
H          4.48554       -1.14361        4.21100
H          8.13269       -5.25364        3.98969
H          8.41091       -5.03552        2.25887
H         10.59843       -5.23844        3.19563
H         10.20093       -4.23926        4.59003
H         10.52636       -3.25888        1.71053
H         11.65906       -2.98569        3.03064
H         10.07104       -1.03389        2.44513
H         10.17959       -1.46812        4.15488
H          2.53998       -3.66497        2.88581
H          1.55217       -5.00312        2.33055
H          3.31503       -5.14138        2.30670
H          1.42416       -5.56958       -0.26652
H          2.63573       -4.80232       -1.30423
H          3.15198       -5.89663       -0.01611
