29

C          0.88458       -0.03377       -0.01375
C          0.31270        0.36010       -1.35187
O         -0.36736       -0.43023       -2.00842
C          0.68013        1.71045       -1.89969
C          0.45089        2.83186       -0.93755
O          1.33459        3.60019       -0.58170
O         -0.84787        2.87005       -0.54151
C         -1.29524        3.88608        0.38537
C         -0.63912        3.74402        1.76352
C         -1.10169        4.83349        2.72627
C         -0.91417        6.22498        2.12783
C         -1.64542        6.36043        0.79498
C         -1.19125        5.29821       -0.20177
H          0.59465       -1.06247        0.21888
H          0.49715        0.62078        0.77010
H          1.97535        0.02323       -0.05033
H          1.74032        1.68556       -2.17422
H          0.10651        1.91294       -2.81012
H         -2.36495        3.67757        0.52102
H         -0.86848        2.75459        2.17768
H          0.45222        3.78238        1.68441
H         -0.54157        4.75638        3.66497
H         -2.15972        4.68076        2.97202
H          0.15552        6.41957        1.98050
H         -1.28372        6.98089        2.82954
H         -1.46829        7.35735        0.37591
H         -2.72609        6.27057        0.96000
H         -0.16479        5.52024       -0.51122
H         -1.79341        5.35955       -1.11647
