37

C          1.19829       -0.00118        0.06514
C          0.72726        0.74766       -1.17139
N          1.01405       -0.03471       -2.35754
C          0.12556       -0.06055       -3.37031
N         -0.78343        0.84720       -3.58942
C         -1.56358        0.55361       -4.70706
C         -2.52172        1.65535       -5.01896
C         -2.12749        2.43758       -6.26589
C         -1.29431       -0.67746       -5.30889
C         -1.78442       -1.53916       -6.38591
O         -1.15866       -2.54463       -6.75345
N         -2.95491       -1.42633       -7.07876
C         -3.95531       -0.39943       -7.26455
C         -4.15738       -0.11969       -8.70520
N         -4.27308        0.12161       -9.83784
C         -5.24915       -0.79061       -6.59829
C         -5.70878       -2.02609       -6.17326
C         -7.00292       -1.95531       -5.57648
C         -7.49825       -0.67235       -5.56295
S         -6.40924        0.44123       -6.25743
S          0.11495       -1.34012       -4.48751
H          0.74270       -0.99624        0.11741
H          0.92564        0.54779        0.97158
H          2.28541       -0.13038        0.05510
H         -0.34665        0.94466       -1.06364
H          1.23768        1.71456       -1.23693
H          1.66983       -0.80110       -2.26629
H         -3.54389        1.27521       -5.04935
H         -2.53512        2.36901       -4.18334
H         -1.86795        1.78540       -7.10646
H         -2.94831        3.09092       -6.57775
H         -1.25195        3.06449       -6.06712
H         -3.02789       -2.20632       -7.72245
H         -3.58768        0.50865       -6.82908
H         -5.14746       -2.94819       -6.27481
H         -7.54452       -2.80406       -5.17558
H         -8.44967       -0.33287       -5.17519
