42

N          0.08123       -0.12135       -0.42037
C         -0.39954       -0.66503       -1.58065
O         -1.25205       -0.07799       -2.23320
C          0.24707       -1.89010       -1.95825
C          0.77103       -2.86552       -1.13939
N          1.46223       -3.77693       -1.86579
C          1.41934       -3.36986       -3.12874
N          0.44069       -2.40617       -3.23480
C         -0.49318       -2.23228       -4.32524
C         -0.00882       -2.53817       -5.73338
C          0.38314       -3.97730       -6.01412
C         -0.22577       -4.58543       -7.13096
C          0.09944       -5.88134       -7.51633
C          1.01297       -6.60931       -6.76941
C          1.63185       -6.02983       -5.65931
C          1.37228       -4.69614       -5.28182
C          2.27466       -3.99103       -4.23705
C          3.18013       -3.04274       -5.08364
C          4.33648       -2.34789       -4.37440
N          5.14455       -3.21986       -3.53320
C          4.29945       -4.02581       -2.65444
C          3.32203       -4.89277       -3.47850
H         -0.21223        0.82030       -0.20246
H          0.95477       -0.44244       -0.02402
H          0.71354       -2.93692       -0.06046
H         -1.36226       -2.85808       -4.08225
H         -0.82293       -1.18948       -4.31247
H         -0.84053       -2.26734       -6.39894
H          0.78995       -1.85427       -6.02407
H         -0.94698       -4.03555       -7.73376
H         -0.35650       -6.31654       -8.40141
H          1.27037       -7.62274       -7.06653
H          2.35915       -6.63707       -5.12771
H          3.62934       -3.65123       -5.88741
H          2.62281       -2.26691       -5.60375
H          4.99742       -1.92994       -5.14600
H          3.96407       -1.49347       -3.80063
H          5.71071       -3.84014       -4.10992
H          4.93724       -4.66784       -2.03931
H          3.79828       -3.35352       -1.94992
H          3.91807       -5.48723       -4.18226
H          2.82416       -5.61453       -2.81736
