30

N          0.55435       -0.35478       -0.08348
C          0.41740       -1.24051       -1.11319
O         -0.63195       -1.21585       -1.75289
N          1.50140       -2.11161       -1.33525
C          2.45904       -2.37238       -0.26294
C          1.91814       -3.24137        0.87798
C          1.45480       -4.62994        0.46200
O          2.53267       -5.36117       -0.10874
N          1.22751       -3.05994       -2.29891
C          2.05404       -3.73341       -3.04143
C          3.48377       -3.80355       -3.18947
C          4.54828       -4.10465       -2.35322
C          5.71923       -4.18776       -3.15131
C          5.28860       -3.99185       -4.43775
N          5.97910       -4.04756       -5.68766
O          5.31952       -3.89129       -6.72181
O          7.19746       -4.26661       -5.62897
O          3.95033       -3.76412       -4.48681
H         -0.24858        0.26191       -0.03248
H          1.43001        0.14490       -0.04558
H          3.37007       -2.78083       -0.67110
H          2.77286       -1.41268        0.16344
H          2.72253       -3.34887        1.61673
H          1.08948       -2.72948        1.37958
H          1.10679       -5.17831        1.34340
H          0.62821       -4.58671       -0.25245
H          2.16761       -6.22729       -0.36505
H          1.53724       -4.37433       -3.77898
H          4.50124       -4.31714       -1.29455
H          6.72600       -4.42309       -2.83308
