88

C          3.84706        1.28540       -0.17584
C          2.56923        0.50703       -0.09784
C          2.65578       -0.86764       -0.42145
C          1.59042       -1.73210       -0.21739
C          0.45962       -1.24730        0.40871
C          0.36032        0.11541        0.75631
C         -0.80903        0.45744        1.62353
C          1.35490        1.03902        0.36368
O          1.06512        2.39702        0.46404
P          1.59480        3.53731       -0.58715
O          1.74076        3.09223       -2.01831
O          0.68205        4.86987       -0.41479
C         -0.60221        5.05801       -0.79234
C         -0.97726        5.51161       -2.04893
C         -2.34072        5.59419       -2.36427
C         -3.29780        5.12908       -1.45682
C         -2.88128        4.67323       -0.21061
O         -3.73017        3.84075        0.49350
P         -3.12898        3.31426        2.02787
O         -4.31627        4.06583        2.64030
O         -3.49084        1.71290        1.53542
C         -3.80031        1.23736        0.23825
C         -3.15724        1.58310       -0.97253
C         -1.72239        1.98528       -1.09782
C         -3.73668        1.28392       -2.22796
C         -4.82330        0.44311       -2.31743
C         -5.27863       -0.15128       -1.15229
C         -4.75937        0.21182        0.11715
C         -5.16978       -0.63812        1.28202
O         -2.52779        2.78776        3.56223
C         -3.22173        2.91496        4.75496
C         -4.55257        2.49452        4.96162
C         -5.34784        1.69682        3.97137
C         -5.19543        2.83061        6.16562
C         -4.50902        3.47776        7.18574
C         -3.15993        3.77623        7.02578
C         -2.50147        3.48987        5.81947
C         -1.03873        3.80097        5.68596
C         -1.55009        4.79926        0.17507
O          2.97480        4.03812        0.12678
C          3.18020        5.39066        0.25825
C          2.56451        6.08432        1.31819
C          1.85476        5.37662        2.43955
C          2.60946        7.48257        1.30811
C          3.26700        8.16190        0.28259
C          3.91844        7.45407       -0.72865
C          3.89308        6.05579       -0.74765
C          4.57725        5.29969       -1.84907
H          3.91531        1.84667       -1.10814
H          3.93383        1.94051        0.69498
H          4.71320        0.61598       -0.11730
H          3.58299       -1.28072       -0.81465
H          1.66613       -2.78406       -0.47801
H         -0.35150       -1.93507        0.64691
H         -0.90349        1.53014        1.78459
H         -1.71318        0.05929        1.16123
H         -0.70931       -0.01852        2.60360
H         -0.22974        5.78089       -2.78960
H         -2.65420        5.94080       -3.34626
H         -4.34293        5.05141       -1.74661
H         -1.34148        2.36632       -0.16139
H         -1.12878        1.11184       -1.38201
H         -1.58081        2.72305       -1.89068
H         -3.26734        1.63945       -3.14575
H         -5.22387        0.16739       -3.28864
H         -6.02426       -0.93884       -1.24014
H         -4.27809       -0.98368        1.81690
H         -5.84056       -0.09616        1.94425
H         -5.68960       -1.54245        0.94205
H         -5.76324        2.31150        3.17023
H         -4.71778        0.90520        3.56520
H         -6.19778        1.19743        4.45088
H         -6.24444        2.57963        6.31289
H         -5.02263        3.72733        8.11004
H         -2.62624        4.24394        7.84932
H         -0.48891        2.89800        5.39904
H         -0.88037        4.58017        4.93515
H         -0.61639        4.14920        6.63452
H         -1.17917        4.52442        1.15369
H          1.19767        4.58390        2.07386
H          2.58268        4.93736        3.12659
H          1.21691        6.06638        3.00350
H          2.11101        8.05604        2.08672
H          3.27402        9.24912        0.27322
H          4.43464        8.00564       -1.51110
H          5.23396        4.53127       -1.42756
H          3.84160        4.82723       -2.50597
H          5.19973        5.96136       -2.46018
