24

C          0.92740       -0.06744        0.01347
O          0.45406       -1.16798        0.77580
C          0.79711       -2.49317        0.39820
C         -0.23985       -3.41121        0.37589
C          0.18629       -4.75441        0.24837
C          1.38246       -5.12397       -0.17189
B          1.68712       -6.62528       -0.63368
O          0.59889       -7.65695       -0.59619
O          3.06097       -7.00109       -1.10411
C          2.34656       -4.15463       -0.19115
C          2.03128       -2.83951        0.05164
O          3.03436       -1.84169       -0.06913
C          2.71554       -0.48061        0.18032
H          0.57073        0.84468        0.44444
H          0.57074       -0.15026       -0.99193
H          1.99740       -0.06744        0.01347
H         -1.26972       -3.13013        0.44850
H         -0.50898       -5.52427        0.51068
H         -0.24514       -7.23907       -0.26004
H          3.07501       -7.96974       -1.35214
H          3.36115       -4.42408       -0.39828
H          1.95189       -0.16296       -0.49853
H          2.36542       -0.37480        1.18586
H          3.58909        0.12154        0.04159
