8

N          0.85645        0.10017       -0.12949
C          0.24549        0.39976       -1.29117
N         -1.09896        0.38210       -1.22268
O          0.85567        0.66369       -2.31455
H          0.35645       -0.11776        0.71554
H          1.86697        0.09817       -0.12174
H         -1.61115        0.59964       -2.06621
H         -1.60472        0.16500       -0.38087
