30

O          1.11534        0.11588       -0.12316
C          2.31950       -0.01328        0.01595
O          3.09457       -0.70420       -0.85110
C          3.09308        0.60726        1.10650
C          4.07422        1.47525        0.79233
C          4.84565        2.27693        1.80771
N          4.72573        3.73087        1.55366
N          3.54979        4.11811        1.36612
C          3.50316        5.49655        1.08969
C          2.76096        6.30772        1.95972
C          2.64982        7.68644        1.74756
C          3.27763        8.28215        0.65406
C          4.01130        7.49965       -0.23534
C          4.10574        6.11654       -0.01442
N          4.85616        5.32829       -0.97237
O          5.99864        5.72130       -1.24941
O          4.30201        4.33996       -1.47309
C          4.44076        1.98179        3.22392
C          3.47374        1.11797        3.56013
C          2.73380        0.35532        2.52473
O          1.91497       -0.48782        2.86700
H          4.02508       -0.79605       -0.57614
H          4.29657        1.69745       -0.25060
H          5.90530        2.01533        1.70076
H          2.26196        5.85767        2.81624
H          2.06875        8.29424        2.43851
H          3.18841        9.35467        0.49360
H          4.49464        7.96434       -1.09237
H          4.96793        2.52014        4.00728
H          3.19423        0.92658        4.58969
