24

O          1.08653        0.00007        0.01599
C          2.30729        0.03821        0.10377
C          3.06139        1.16225        0.78524
C          2.64066        2.52148        0.21669
C          3.69435        3.28168       -0.51814
C          4.98819        2.95154       -0.52913
C          5.55271        1.77719        0.19513
C          4.52973        0.74561        0.66451
C          4.50210       -0.45357       -0.25158
O          5.49901       -0.97971       -0.72624
N          3.20783       -0.87506       -0.38345
S          2.72619       -2.20845       -1.32068
C          3.76682       -3.60340       -0.75026
Cl         5.17475       -3.83148       -1.82646
Cl         4.28025       -3.48249        0.95699
Cl         2.77266       -5.11073       -0.88010
H          2.76730        1.12417        1.84300
H          2.30873        3.15693        1.04885
H          1.77247        2.42524       -0.44627
H          3.37521        4.18109       -1.04316
H          5.69407        3.58514       -1.06406
H          6.30820        1.31566       -0.45194
H          6.09851        2.15948        1.06649
H          4.86164        0.35412        1.63699
