23

C          1.04000       -0.12924       -0.12278
C          0.38022       -0.13144        1.26504
C          0.57523        1.24674        1.90373
C         -1.11231       -0.44446        1.08542
O          1.07201       -1.15005        2.00418
C          0.57557       -1.48615        3.29812
C          1.56559       -1.19327        4.38226
C          2.86122       -0.44929        4.16912
O          1.70052        0.20398        4.69873
H          0.61634        0.64295       -0.77389
H          0.91166       -1.10101       -0.61429
H          2.12032        0.03783       -0.04372
H          0.15913        2.04194        1.27595
H          0.08845        1.30685        2.88205
H          1.63870        1.45761        2.06123
H         -1.25803       -1.47541        0.74559
H         -1.67047       -0.33551        2.02070
H         -1.57540        0.23287        0.35929
H         -0.38162       -1.01591        3.53514
H          0.40553       -2.56888        3.28372
H          1.47447       -1.86985        5.22040
H          3.67819       -0.63410        4.85429
H          3.16734       -0.20454        3.16090
