14

C          1.07500        0.07162        0.09853
C          0.33623        0.77742       -0.76569
O         -1.02244        0.75555       -0.95377
C         -1.78072        0.03796        0.03749
C         -3.15276       -0.39089       -0.41117
C         -2.06676       -1.41193       -0.24649
H          0.64474       -0.64213        0.79023
H          2.15298        0.19345        0.11794
H          0.77870        1.47462       -1.46853
H         -1.70082        0.35905        1.07232
H         -3.95198       -0.37311        0.31954
H         -3.46117       -0.13458       -1.41798
H         -1.63642       -1.84743       -1.14060
H         -2.12421       -2.08789        0.59769
