40

O          2.22016        0.35450        0.17786
C          1.05658        0.00326        0.05688
N          0.65258       -1.30402        0.12364
C         -0.79026       -1.46014        0.05804
C         -1.14647       -2.23415       -1.22329
C         -2.09031       -1.76217       -2.15282
C         -2.47556       -2.54214       -3.24696
C         -1.92941       -3.80841       -3.43380
C         -0.97859       -4.29036       -2.54010
C         -0.58392       -3.50942       -1.45147
C         -1.33716       -2.07616        1.35985
C         -2.31442       -3.08968        1.35588
C         -2.83581       -3.59985        2.54688
C         -2.41113       -3.09167        3.76934
C         -1.45624       -2.08073        3.80338
C         -0.91941       -1.58269        2.61357
C         -1.17704        0.05169        0.00434
O         -2.31505        0.50602        0.06144
N         -0.03358        0.79535       -0.08337
C          0.00966        2.22765       -0.09112
O         -0.72659        2.73422       -1.18193
P         -0.00443        2.86262       -2.59394
O         -0.84049        3.34898       -3.72561
O          1.25104        3.80769       -2.31998
O          0.66854        1.44600       -2.87723
H          1.31440       -2.05467        0.24938
H         -2.56903       -0.79154       -2.03670
H         -3.22004       -2.16311       -3.94337
H         -2.25180       -4.42136       -4.27139
H         -0.55741       -5.28296       -2.67853
H          0.13788       -3.92588       -0.75122
H         -2.70384       -3.49708        0.42484
H         -3.58712       -4.38490        2.51374
H         -2.83328       -3.47589        4.69378
H         -1.13584       -1.66959        4.75729
H         -0.18306       -0.78400        2.68123
H         -0.46992        2.58429        0.82641
H          1.04068        2.59494       -0.09816
H          1.01192        4.74412       -2.44954
H          0.91912        1.35402       -3.81396
