31

O          1.22809       -0.91308       -0.03601
C          2.36801       -0.46312       -0.07607
N          3.06859       -0.19732        1.07523
C          4.48658        0.09323        1.21252
C          4.78226        1.14169        2.25722
N          5.16700        0.67757        3.48085
C          5.50626        1.58514        4.42645
C          5.46715        2.95626        4.22948
C          5.91437        3.88273        5.31583
F          5.41383        3.54822        6.53555
F          7.26801        3.89403        5.45509
F          5.55030        5.17708        5.10304
C          5.04797        3.41705        2.97812
C          4.70400        2.50713        1.97888
Cl         4.25484        3.12945        0.43869
C          2.98296       -0.16839       -1.38036
C          2.59451        0.97846       -2.08515
Cl         1.36461        2.05247       -1.51728
C          3.21930        1.29987       -3.29509
C          4.21452        0.47231       -3.81385
C          4.57045       -0.69333       -3.13645
C          3.94801       -1.02346       -1.92789
Cl         4.42713       -2.49703       -1.16232
H          2.57659       -0.47656        1.91688
H          4.95881       -0.84970        1.51395
H          4.94130        0.37252        0.25939
H          5.83107        1.15633        5.37328
H          5.00507        4.48636        2.77684
H          2.93390        2.19890       -3.83801
H          4.70304        0.72981       -4.75129
H          5.33524       -1.34320       -3.55715
