12

C          0.96310       -0.07973        0.07428
C          0.47172        0.52233       -1.23665
C          0.96310       -0.27957       -2.43582
S         -1.35176        0.58183       -1.24139
H          0.61876       -1.11199        0.20460
H          0.62391        0.50752        0.93487
H          2.05844       -0.09274        0.10016
H          0.83643        1.55178       -1.31861
H          0.61875       -1.31945       -2.40116
H          0.62390        0.16411       -3.37848
H          2.05843       -0.29651       -2.45932
H         -1.55404       -0.73997       -1.13615
