12

O          0.94622        0.01182       -0.13307
C          0.53519       -1.30063       -0.49125
C          1.03818       -1.65673       -1.88204
C          2.55313       -1.67487       -1.95612
F          3.03036       -2.58510       -1.06523
H          1.78929       -0.07161        0.34701
H          0.89012       -2.00909        0.26488
H         -0.55912       -1.31966       -0.47939
H          0.65118       -2.64514       -2.15287
H          0.66013       -0.93035       -2.61017
H          2.88997       -1.97265       -2.95323
H          2.99105       -0.70176       -1.71651
