54

C          0.52201       -0.10423       -0.41928
O         -0.05345       -1.03330        0.49118
C          0.52610       -2.26570        0.57612
C         -0.12680       -3.16115        1.41138
C          0.32937       -4.47401        1.53144
C          1.46442       -4.91284        0.84324
N          1.80790       -6.28532        0.75737
C          1.02441       -7.42528        0.82551
O          1.51866       -8.54425        0.76367
C         -0.44588       -7.31998        0.92359
C         -1.05867       -7.72026        2.11280
C         -2.40857       -7.42827        2.31690
C         -3.15532       -6.78194        1.31740
C         -4.57763       -6.39498        1.61462
N         -5.33134       -7.25342        2.23982
N         -5.10805       -5.15564        1.27303
C         -4.35048       -4.02927        0.75055
C         -6.48194       -4.83896        1.66742
C         -2.56089       -6.49706        0.08242
C         -1.19948       -6.75488       -0.11399
C          2.25472       -3.94165        0.19654
C          3.63523       -4.26358       -0.28545
O          3.88573       -5.41657       -0.63870
N          4.61813       -3.30414       -0.40372
C          4.69972       -1.99061        0.05308
C          4.16505       -1.56535        1.26536
C          4.11571       -0.19537        1.53594
C          4.62517        0.69747        0.60289
Cl         4.48805        2.38987        0.83853
C          5.21851        0.18116       -0.53619
N          5.28645       -1.14407       -0.81630
C          1.70274       -2.66875       -0.04849
H         -0.02734        0.83709       -0.32625
H          0.41929       -0.45785       -1.45009
H          1.56799        0.10294       -0.17600
H         -1.02031       -2.85235        1.94903
H         -0.22611       -5.13092        2.19051
H          2.73594       -6.49233        0.37684
H         -0.47369       -8.19505        2.89685
H         -2.86033       -7.66714        3.27700
H         -4.83985       -8.13488        2.40498
H         -4.36674       -4.04749       -0.34419
H         -4.78165       -3.07240        1.06750
H         -3.31384       -4.02867        1.09729
H         -7.16263       -5.67024        1.45614
H         -6.52072       -4.60975        2.73793
H         -6.86676       -3.97132        1.11975
H         -3.14335       -6.05166       -0.71902
H         -0.72342       -6.47838       -1.05189
H          5.33018       -3.54024       -1.08411
H          3.76143       -2.26836        1.98679
H          3.65409        0.16246        2.45241
H          5.64531        0.83078       -1.29533
H          2.22242       -1.99132       -0.71706
