49

C          0.90413        0.30528       -0.10276
O         -0.46632        0.71559       -0.13947
C         -0.96327        0.81048       -1.41158
C         -1.37883        2.06234       -1.86788
C         -1.95253        2.20743       -3.14687
C         -2.39741        3.54405       -3.70459
N         -2.51944        4.57584       -2.69855
C         -1.83581        5.73903       -2.52892
O         -2.10313        6.43202       -1.55122
C         -0.77608        6.17518       -3.52336
C          0.63714        5.69097       -3.18647
C          1.02007        4.30316       -3.70733
C          0.94638        4.12487       -5.22760
C          2.22553        4.51033       -5.90637
C          2.90493        3.66310       -6.69439
C          4.22271        3.98647       -7.34566
C          5.27236        2.97401       -6.88874
C          4.07988        3.97462       -8.86586
C         -2.07635        1.06457       -3.95711
C         -1.68967       -0.19304       -3.48668
C         -1.16667       -0.31587       -2.20701
O         -0.90453       -1.57241       -1.74004
H          1.24927       -0.20307       -1.00980
H          1.01863       -0.38525        0.73926
H          1.53817        1.17762        0.08108
H         -1.23929        2.92439       -1.21929
H         -1.72194        3.85578       -4.50083
H         -3.39701        3.43005       -4.13966
H         -3.21111        4.42265       -1.97467
H         -1.08996        5.94875       -4.54310
H         -0.76838        7.27324       -3.47293
H          1.35794        6.41554       -3.58394
H          0.76825        5.69126       -2.09646
H          2.03177        4.06298       -3.35419
H          0.37511        3.56598       -3.23392
H          0.71893        3.07113       -5.43457
H          0.13356        4.70211       -5.67464
H          2.60324        5.51475       -5.72921
H          2.50975        2.66319       -6.87063
H          4.55576        4.98616       -7.03954
H          5.01002        1.95560       -7.19866
H          6.25296        3.21321       -7.31220
H          5.36887        2.97594       -5.79684
H          3.34042        4.71329       -9.19525
H          5.03348        4.22038       -9.34491
H          3.76071        2.99295       -9.23413
H         -2.49592        1.14211       -4.95852
H         -1.82302       -1.07646       -4.10425
H         -0.85390       -1.48878       -0.77010
