31

C          0.62700        0.47471       -0.06471
C          0.40132        0.43790        1.45644
C          1.05351        1.71667        2.04045
C         -1.11667        0.55293        1.70778
C          1.02378       -0.81874        2.18931
C          2.43533       -1.23193        1.70755
C          2.45824       -2.15541        0.48696
C          1.50163       -3.33790        0.61099
O          1.43820       -4.03140       -0.63147
C          0.09789       -2.91077        1.02522
C          0.13459       -2.07633        2.29462
H          0.13235        1.34553       -0.51241
H          0.22054       -0.40847       -0.56241
H          1.68898        0.56341       -0.31512
H          0.65367        2.61935        1.56345
H          0.85945        1.80377        3.11571
H          2.13822        1.72216        1.89372
H         -1.66843       -0.25178        1.20981
H         -1.34655        0.52131        2.77832
H         -1.51364        1.49674        1.31544
H          1.15348       -0.49657        3.23435
H          2.92460       -1.76838        2.53252
H          3.06056       -0.35333        1.51690
H          3.47756       -2.53481        0.33880
H          2.24050       -1.59978       -0.42991
H          1.89722       -4.04247        1.35191
H          1.05735       -3.42654       -1.29168
H         -0.39938       -2.36701        0.21558
H         -0.51654       -3.80495        1.18891
H          0.53892       -2.70693        3.09969
H         -0.88180       -1.83161        2.61621
