21

N          2.88442       -0.08182        0.04805
C          1.72454       -0.03962        0.04490
C          0.29513        0.01944        0.01511
C         -0.53927       -1.07883       -0.03649
N         -1.83351       -0.62688       -0.05838
C         -1.83715        0.74492       -0.04118
C         -0.52777        1.18203        0.03945
C         -0.15423        2.58998        0.09163
C          0.63792        3.09472       -0.95487
C          1.05579        4.42502       -0.95716
C          0.68155        5.27009        0.08364
C         -0.10788        4.78718        1.13227
Cl        -0.52291        5.91043        2.38316
C         -0.52722        3.44574        1.14960
Cl        -1.46214        2.84782        2.48988
H         -0.32471       -2.13977       -0.05603
H         -2.65958       -1.21276       -0.08619
H         -2.77374        1.28820       -0.06535
H          0.93849        2.45128       -1.78080
H          1.67588        4.80000       -1.76851
H          1.01322        6.30610        0.07707
