31

C          0.88248        0.08072        0.09322
C          0.63627       -0.37987       -1.33441
S          1.00520       -2.14168       -1.57286
C          2.76465       -2.16038       -1.57418
N          3.42236       -1.05159       -1.49404
N          4.81437       -1.05531       -1.46128
C          5.47354       -2.17706       -1.42663
C          7.01821       -2.10689       -1.36108
C          7.50543       -1.30733       -2.58555
C          7.39468       -1.34236       -0.07697
C          7.76777       -3.44411       -1.35057
C          4.73805       -3.51030       -1.44292
O          5.31177       -4.57644       -1.25633
N          3.37007       -3.40157       -1.62213
N          2.61767       -4.62354       -1.74794
H          0.33609       -0.53346        0.81655
H          0.53882        1.11410        0.21092
H          1.94371        0.06165        0.35745
H         -0.42620       -0.24529       -1.56433
H          1.19410        0.23214       -2.04990
H          7.08339       -0.29621       -2.60822
H          8.59663       -1.20490       -2.58660
H          7.21149       -1.80433       -3.51733
H          7.01388       -1.86038        0.81097
H          8.48135       -1.24663        0.02701
H          6.97469       -0.32999       -0.06731
H          7.52876       -4.03448       -0.45937
H          7.53903       -4.04189       -2.23946
H          8.85330       -3.28733       -1.34002
H          1.80280       -4.54525       -1.13565
H          3.20158       -5.37348       -1.36193
