49

C          0.15791       -0.73695        0.05540
O         -0.19338       -2.11291       -0.07519
C          0.70993       -2.92002       -0.76628
C          0.26734       -3.88049       -1.55600
C          1.16975       -4.78888       -2.37075
C          2.58895       -4.23074       -2.57363
C          3.00812       -3.25277       -1.73182
C          4.13724       -2.35776       -2.10479
C          4.34993       -2.37068       -3.60515
C          3.06643       -2.82377       -4.43969
C          3.15155       -4.32489       -4.02623
C          4.45706       -4.89395       -4.70926
C          5.21283       -3.96199       -5.81786
C          4.52512       -2.68319       -6.52481
C          4.09513       -3.15231       -7.94014
C          5.38725       -1.38086       -6.73287
O          6.73918       -1.51869       -6.33590
C          4.73109       -0.19741       -5.99711
C          3.30350       -0.60116       -5.72627
C          3.28293       -2.12487       -5.80364
C          2.19368       -2.71378       -0.56928
H         -0.70334       -0.19952        0.46420
H          0.40473       -0.28960       -0.91500
H          0.98483       -0.60827        0.76210
H         -0.81056       -4.03656       -1.66295
H          0.67503       -4.88761       -3.34451
H          1.20979       -5.78477       -1.92207
H          5.04502       -2.65157       -1.56356
H          3.93313       -1.31746       -1.82785
H          5.24687       -2.98097       -3.71790
H          4.71105       -1.38035       -3.84950
H          2.58862       -3.43958       -5.21148
H          2.37577       -4.97224       -4.49268
H          5.18182       -5.21336       -3.94870
H          4.18015       -5.82030       -5.23517
H          5.56468       -4.64662       -6.60357
H          6.15435       -3.63959       -5.35656
H          3.48375       -2.39674       -8.44914
H          4.97332       -3.33850       -8.56936
H          3.50929       -4.07598       -7.89099
H          5.40485       -1.10843       -7.79483
H          6.79073       -1.38513       -5.37465
H          4.74628        0.71442       -6.60413
H          5.25470        0.07388       -5.07456
H          2.64299       -0.18297       -6.49608
H          2.92356       -0.22527       -4.76727
H          2.38001       -2.28044       -6.43708
H          2.52789       -3.15120        0.37443
H          2.38834       -1.63977       -0.50648
