44

C          1.27454       -0.16479       -0.33900
C          0.88979       -0.29216        1.13842
C          2.11802        0.06227        1.99667
S         -0.46566        0.92965        1.51204
C         -0.97033        0.01249        3.00392
C         -2.39619       -0.56448        3.14190
N         -3.33574       -0.32101        2.02205
C         -4.66431       -0.00921        2.05696
O         -5.29073       -0.00869        0.99156
C         -5.36960        0.34769        3.38913
N         -5.26825       -0.77485        4.34881
C         -4.91383        1.69268        3.93580
C         -4.28637        1.84538        5.18400
C         -3.88045        3.10520        5.63590
C         -4.10598        4.22380        4.84229
O         -3.72536        5.46990        5.24301
C         -4.73144        4.10373        3.60967
C         -5.13518        2.84584        3.15949
C         -1.67307       -1.95317        3.06095
O         -1.98939       -3.11872        2.99392
N         -0.47789       -1.35412        2.79050
C          0.29343       -1.65401        1.57546
C         -0.46508       -2.30593        0.40172
O          0.05548       -2.99059       -0.46855
O         -1.75965       -1.94718        0.27323
H          1.72794        0.81135       -0.55158
H          0.41590       -0.27087       -1.01155
H          2.01157       -0.92858       -0.61338
H          2.93384       -0.64439        1.80221
H          2.49542        1.06602        1.76763
H          1.90946        0.02235        3.07158
H         -0.57236        0.43900        3.93186
H         -2.81371       -0.37746        4.13103
H         -3.01657       -0.56681        1.08618
H         -6.43871        0.44481        3.15497
H         -5.94146       -0.60441        5.09579
H         -5.59643       -1.62031        3.87772
H         -4.10178        0.98183        5.81916
H         -3.39569        3.19074        6.60317
H         -3.30520        5.40152        6.11558
H         -4.90451        4.98497        2.99843
H         -5.62402        2.77141        2.18843
H          1.07161       -2.36674        1.87300
H         -2.06772       -2.45349       -0.51090
