22

C          0.65881       -0.16399       -0.23390
O          0.79986       -1.40754        0.45759
C          1.14550       -2.41553       -0.40812
C          0.16438       -3.35338       -0.72124
C          0.46944       -4.40117       -1.58964
Cl        -0.78076       -5.53923       -1.95645
C          1.75346       -4.52029       -2.14549
O          1.96263       -5.56465       -3.00995
C          3.31232       -5.90912       -3.29580
C          2.72821       -3.56877       -1.81313
C          2.45710       -2.55068       -0.88951
N          3.43272       -1.57073       -0.62775
H         -0.17578        0.37816        0.22105
H          0.44531       -0.28114       -1.30300
H          1.56298        0.43665       -0.09670
H         -0.83029       -3.25728       -0.29698
H          3.77432       -5.16215       -3.94890
H          3.89492       -6.04677       -2.37836
H          3.30771       -6.86323       -3.83157
H          3.71480       -3.60397       -2.26216
H          3.25981       -1.11609        0.26781
H          4.38498       -1.91478       -0.69704
