36

C          0.86591       -0.12848       -0.20611
O          0.28256       -0.72712        0.95364
C          0.88070       -1.88421        1.34765
O          1.79600       -2.42743        0.73187
C          0.30911       -2.42927        2.65036
C          0.85254       -1.75030        3.90478
C          1.07248       -2.52180        5.05770
C          1.43751       -1.91966        6.26309
C          1.58486       -0.53719        6.33664
C          1.38753        0.24191        5.20056
C          1.03141       -0.35939        3.99193
C         -1.25223       -2.55125        2.59708
C         -1.98814       -1.30879        3.14974
C         -3.50359       -1.47758        3.14238
C         -3.89106       -2.76146        3.86247
C         -3.14766       -3.95282        3.27153
N         -1.69787       -3.76384        3.33091
H          0.48085        0.89149       -0.28906
H          0.57625       -0.68779       -1.10027
H          1.95640       -0.07245       -0.11983
H          0.70570       -3.45818        2.65803
H          0.92360       -3.59976        5.03256
H          1.58274       -2.53000        7.15027
H          1.84071       -0.06604        7.28147
H          1.48662        1.32271        5.25818
H          0.84814        0.28767        3.13840
H         -1.54699       -2.68769        1.54703
H         -1.72782       -0.41799        2.56862
H         -1.69098       -1.11644        4.18782
H         -3.97474       -0.61835        3.63303
H         -3.86873       -1.50289        2.10928
H         -3.65445       -2.67126        4.93079
H         -4.97246       -2.91869        3.78702
H         -3.40840       -4.85384        3.83730
H         -3.46405       -4.12258        2.23522
H         -1.24484       -4.58839        2.93549
