33

C          2.53001        0.07244       -0.02697
C          1.03139        0.03774       -0.02871
C          0.36552       -1.18495       -0.01077
C         -1.03076       -1.22986       -0.00248
C         -1.81072       -0.06203       -0.02825
N         -3.23038       -0.11757        0.04154
C         -4.03919       -1.28760        0.04068
C         -3.95362       -2.24311        1.06559
F         -3.16913       -2.02310        2.13237
C         -4.66663       -3.44099        1.01625
C         -5.49068       -3.71384       -0.07194
C         -5.60416       -2.78057       -1.10140
C         -4.88428       -1.58122       -1.04574
Cl        -5.04077       -0.48391       -2.37423
C         -1.13579        1.18086       -0.04134
C         -1.87003        2.50286       -0.04697
C         -2.71845        2.69100       -1.27200
O         -3.93115        2.53932       -1.31938
O         -2.01858        2.96972       -2.38639
C          0.27572        1.21306       -0.04610
H          2.91731       -0.44662        0.85598
H          2.91888       -0.41238       -0.92813
H          2.90942        1.09902       -0.00458
H          0.92506       -2.11732        0.00397
H         -1.49492       -2.21078        0.01316
H         -3.67299        0.60329       -0.53305
H         -4.56362       -4.15473        1.82810
H         -6.03980       -4.65079       -0.12088
H         -6.24473       -2.99538       -1.95350
H         -2.50778        2.57466        0.84215
H         -1.18009        3.35338        0.01634
H         -2.68687        2.94865       -3.10353
H          0.79100        2.17236       -0.06005
