22

O          1.16437       -0.59644        0.37964
C          2.25785       -0.12491        0.10247
O          2.84119       -0.33387       -1.09472
C          3.04057        0.68117        1.09073
C          2.52991        0.70773        2.39708
C          3.18666        1.41606        3.39048
C          4.35678        2.12373        3.07826
N          5.00611        2.82476        4.20391
O          6.21273        3.08233        4.13037
O          4.30266        3.08693        5.19039
C          4.88349        2.13830        1.74423
C          6.02761        2.85522        1.29355
C          6.46912        2.78703       -0.02300
C          5.75712        2.00375       -0.89301
N          4.65543        1.31340       -0.53047
C          4.20729        1.37976        0.74862
H          3.68529        0.16877       -1.19423
H          1.61720        0.16408        2.64332
H          2.77478        1.40335        4.39932
H          6.60592        3.49350        1.95750
H          7.34701        3.33366       -0.35076
H          6.05197        1.90745       -1.93500
