14

S          1.32631        0.10915        0.64835
C          2.88889        0.08002        0.12810
N          3.65568       -1.06664       -0.11674
C          4.91180       -0.64245       -0.54165
C          6.04083       -1.29794       -0.91479
N          7.14011       -0.60671       -1.29145
C          7.05009        0.75028       -1.27466
N          5.98043        1.48793       -0.92180
C          4.94311        0.73773       -0.56555
N          3.69326        1.18771       -0.15113
H          3.33593       -2.01718       -0.00174
H          6.12090       -2.37715       -0.93143
H          7.93884        1.29447       -1.57975
H          3.43453        2.15807       -0.07496
