31

C          1.70768        0.18784        0.24564
C          1.23969        0.26167       -1.19973
C          1.27620       -1.08118       -1.93673
C          0.47488       -2.24190       -1.31808
C         -1.03878       -2.33427       -1.66057
C         -1.73141       -3.48797       -0.86551
C         -0.98655       -4.81734       -0.77829
C         -1.73143       -1.04957       -1.22500
O         -1.86454       -0.72430       -0.04520
N         -2.17063       -0.20029       -2.20247
C         -2.13391       -0.42607       -3.53850
S         -2.69433        0.70168       -4.62169
N         -1.63758       -1.61691       -3.95371
C         -1.17999       -2.62473       -3.15151
O         -0.85603       -3.69292       -3.66833
H          0.99626       -0.35836        0.87150
H          1.80104        1.19632        0.66147
H          2.68432       -0.30051        0.31991
H          0.24324        0.70765       -1.23611
H          1.89767        0.95670       -1.73638
H          0.97862       -0.92436       -2.97915
H          2.32768       -1.39677       -1.97632
H          0.95955       -3.15874       -1.68164
H          0.60925       -2.24990       -0.23084
H         -1.91924       -3.17065        0.16861
H         -2.72225       -3.67667       -1.30079
H         -0.03941       -4.71356       -0.24083
H         -1.59321       -5.54200       -0.22435
H         -0.78518       -5.24591       -1.76236
H         -2.58131        0.66691       -1.87862
H         -1.66917       -1.82474       -4.94440
