22

Cl        -2.10695        0.02262        0.03181
C         -0.38689        0.00888        0.01722
C          0.29697       -1.20056        0.10521
C          1.69501       -1.20998        0.09734
C          2.42387       -0.01319       -0.00794
C          3.89781       -0.01809       -0.00324
C          4.56491        0.52917        1.11174
C          5.95744        0.55240        1.18635
C          6.71428        0.02465        0.14532
C          6.08128       -0.52194       -0.97450
Cl         7.10105       -1.15452       -2.22241
C          4.67784       -0.54369       -1.05892
Cl         3.90288       -1.19162       -2.47588
C          1.71226        1.19581       -0.09215
C          0.31426        1.20782       -0.07967
H         -0.24753       -2.13808        0.17880
H          2.21508       -2.16370        0.16945
H          3.98909        0.93913        1.94145
H          6.44945        0.97929        2.05743
H          7.79992        0.04280        0.20970
H          2.24623        2.14077       -0.17474
H         -0.21750        2.15304       -0.14820
