27

C          1.15955       -0.21895        0.16341
C          0.74135        0.72277        1.24608
N          0.36038        0.20950        2.49021
N         -0.17404        1.28773        3.21400
C         -0.62068        1.12945        4.53834
C         -1.51423        2.05112        5.10261
C         -1.93952        1.92135        6.42897
C         -1.43947        0.87705        7.21265
N         -1.83923        0.76826        8.62053
O         -2.75796        1.49912        9.01653
O         -1.23411       -0.04968        9.32781
C         -0.54987       -0.05578        6.66599
C         -0.16231        0.06168        5.32536
C         -0.01109        2.47905        2.48808
O         -0.31221        3.61373        2.82403
C          0.61845        2.06234        1.22449
N          0.99807        2.93337        0.16358
O          0.89880        4.15088        0.34869
O          1.43060        2.42846       -0.88119
H          0.73114        0.06036       -0.80411
H          0.80091       -1.23324        0.37195
H          2.24933       -0.25666        0.08111
H         -0.27657       -0.58865        2.41389
H         -1.91378        2.87471        4.51302
H         -2.64432        2.64692        6.83101
H         -0.13826       -0.86314        7.26895
H          0.55679       -0.65192        4.92831
