14

O          1.13422       -0.24991        0.72630
C          2.20245       -0.05023        0.17697
O          2.92245       -0.99693       -0.47441
C          2.91321        1.26039        0.12820
C          2.40008        2.36166        0.79755
C          3.11325        3.55351        0.72382
C          4.29471        3.59967       -0.01311
C          4.72795        2.44557       -0.65070
N          4.07169        1.26540       -0.59796
H          3.73986       -0.57295       -0.83115
H          1.47595        2.29151        1.36251
H          2.75125        4.44083        1.23708
H          4.86704        4.51886       -0.08834
H          5.64338        2.44576       -1.23733
