23

Cl        -2.65770        0.18688        0.64714
C         -1.14035       -0.54236        0.24737
C         -1.07834       -1.93956        0.27884
C          0.11176       -2.60138       -0.02460
O          0.04531       -3.97767        0.01228
C          1.22245       -4.68012        0.13339
C          1.87083       -4.70273        1.37037
C          3.03707       -5.44877        1.52111
C          3.54583       -6.18480        0.44461
Cl         5.00069       -7.07884        0.72496
C          2.88504       -6.18590       -0.79559
Cl         3.52001       -7.10843       -2.12353
C          1.70858       -5.43327       -0.94716
Cl         0.84144       -5.39370       -2.45018
C          1.23841       -1.86232       -0.38479
C          1.17972       -0.46294       -0.41401
Cl         2.62986        0.37242       -0.85782
C         -0.00917        0.21080       -0.09631
Cl        -0.07879        1.94382       -0.13145
H         -1.96177       -2.51952        0.53890
H          1.46857       -4.14719        2.21443
H          3.54507       -5.46008        2.48372
H          2.16767       -2.35426       -0.65890
