24

C          0.89738       -0.00794       -0.12841
O          0.36557       -1.29474       -0.42710
C          0.81629       -1.86991       -1.59375
C          2.13358       -1.71737       -2.03435
C          2.55041       -2.34435       -3.20181
C          1.64661       -3.14013       -3.92154
N          2.15996       -3.74959       -5.14562
O          1.48216       -3.64383       -6.17618
O          3.27215       -4.29361       -5.08010
C          0.30610       -3.35047       -3.49339
C         -0.64789       -4.17629       -4.15098
C         -1.95270       -4.32382       -3.67719
C         -2.34482       -3.66219       -2.52610
C         -1.42846       -2.86179       -1.84720
C         -0.10193       -2.69053       -2.30211
H          0.27320        0.43539        0.65350
H          0.86251        0.65350       -1.00091
H          1.91484       -0.08652        0.26614
H          2.85594       -1.13253       -1.47358
H          3.57727       -2.21626       -3.53995
H         -0.39098       -4.72401       -5.05626
H         -2.65822       -4.95498       -4.21184
H         -3.35904       -3.76706       -2.14992
H         -1.76274       -2.35921       -0.94026
