19

C          0.94967        0.07371        0.11413
C          0.36681       -1.10961       -0.60291
O         -0.50670       -1.78589       -0.04912
N          0.75160       -1.48261       -1.84851
C          1.69171       -1.02189       -2.72980
N          1.87758       -1.60302       -3.89732
N          2.90281       -1.02256       -4.62024
C          3.43591       -0.02073       -3.95412
S          4.79255        0.96456       -4.47767
N          5.55092        0.23839       -5.79563
O          4.24067        2.20631       -4.96728
O          5.76913        0.92498       -3.40988
S          2.72362        0.29970       -2.44057
H          0.44679        0.18569        1.08082
H          0.77208        0.99134       -0.45081
H          2.01145       -0.08312        0.31587
H          0.25041       -2.29452       -2.18966
H          5.62113        0.90848       -6.56246
H          6.45785       -0.13278       -5.50984
