80

C          0.79086       -0.24595        0.11201
C          0.41322        0.13248       -1.31479
C          1.23766       -0.58237       -2.42250
C          1.13072       -2.14243       -2.38889
C         -0.23180       -2.81476       -2.63627
C         -0.73504       -3.01647       -4.12263
C         -0.16574       -4.34408       -4.64124
C         -2.28377       -3.08393       -4.16323
C         -2.92879       -1.85138       -3.41889
C         -3.18491       -0.85844       -4.48691
C         -3.58770       -1.76599       -5.60042
C         -4.96293       -1.70567       -6.22842
C         -6.08478       -1.15362       -5.39391
C         -6.14767        0.30299       -5.54865
C         -5.78973        0.90694       -6.66871
C         -5.78466        2.41182       -6.59870
C         -4.51127        2.96670       -7.19912
O         -4.45674        4.38108       -7.04633
C         -4.50170        2.58179       -8.67114
C         -4.36929        1.06271       -8.83851
C         -5.34858        0.14583       -7.99138
C         -6.61781       -0.12015       -8.80690
C         -4.56930       -1.18626       -7.59451
C         -4.00814       -2.55376       -8.22180
C         -2.91159       -3.42316       -7.12882
C         -3.16838       -3.21811       -5.51148
C         -4.23202       -4.28822       -5.12711
C          0.96579        0.04141       -3.82459
C          1.16653        1.56641       -3.85801
C          1.86933       -0.56138       -4.90752
H          0.44033       -1.24760        0.37117
H          0.33166        0.45821        0.81646
H          1.87441       -0.19724        0.26041
H         -0.66036       -0.02000       -1.46563
H          0.58017        1.21356       -1.37799
H          2.29117       -0.36444       -2.19056
H          1.88125       -2.59001       -3.04599
H          1.43978       -2.45013       -1.37996
H         -0.18560       -3.81318       -2.17746
H         -0.94464       -2.30075       -1.99647
H         -0.39455       -2.20536       -4.76574
H         -0.62692       -5.19408       -4.12115
H         -0.35340       -4.46937       -5.71043
H          0.91381       -4.40692       -4.47161
H         -2.52645       -3.93518       -3.51159
H         -3.87775       -2.13709       -2.95714
H         -2.33779       -1.34284       -2.66392
H         -3.88309       -0.06221       -4.23904
H         -2.24705       -0.34328       -4.75713
H         -2.79426       -1.40351       -6.27332
H         -5.37951       -2.69946       -6.41554
H         -5.94350       -1.44084       -4.34664
H         -7.04781       -1.58309       -5.69590
H         -6.45758        0.84916       -4.65249
H         -6.67306        2.81160       -7.09911
H         -5.85556        2.76434       -5.55844
H         -3.63050        2.55753       -6.68554
H         -5.35885        4.73379       -7.12033
H         -5.41100        2.94706       -9.16229
H         -3.66532        3.08548       -9.16922
H         -4.44355        0.80929       -9.90175
H         -3.32373        0.85715       -8.57333
H         -7.21052        0.79874       -8.91467
H         -6.38255       -0.47308       -9.81574
H         -7.26034       -0.86704       -8.32967
H         -3.59678       -0.69735       -7.57137
H         -4.84224       -3.23728       -8.44182
H         -3.47523       -2.38124       -9.16335
H         -2.98170       -4.48532       -7.40220
H         -1.90115       -3.08901       -7.39139
H         -3.72830       -5.22048       -4.84025
H         -4.84741       -3.96179       -4.28261
H         -4.89925       -4.57028       -5.94778
H         -0.07781       -0.14599       -4.09171
H          2.14279        1.84643       -3.44720
H          1.11298        1.94555       -4.88468
H          0.38938        2.09163       -3.29491
H          1.79078       -1.64839       -4.96647
H          1.59300       -0.17228       -5.89331
H          2.91953       -0.31014       -4.72511
