19

C          1.09425       -0.14153       -0.21385
C          0.11141       -0.52654       -1.03344
O         -1.27475       -0.48304       -0.81680
C         -1.86025        0.28359        0.14820
O         -1.32664        1.07303        0.91255
C         -3.33419        0.08951        0.09767
C         -4.15097        1.09150        0.63953
C         -5.54032        0.96101        0.60596
C         -6.11986       -0.17421        0.04082
C         -5.31355       -1.18190       -0.48857
C         -3.92259       -1.05360       -0.46143
H          0.90945        0.27948        0.76799
H          2.13101       -0.24499       -0.51641
H          0.29541       -0.96987       -2.00552
H         -3.70644        1.98055        1.08346
H         -6.16910        1.74520        1.02060
H         -7.20242       -0.27496        0.01564
H         -5.76930       -2.06899       -0.92213
H         -3.31261       -1.85421       -0.87227
