17

O          0.94459       -0.00558        0.20751
C          0.26595        1.17568        0.40283
C          0.75804        2.33971       -0.18060
C          0.05737        3.50631        0.04091
N         -1.06317        3.57221        0.78658
C         -1.51937        2.42715        1.33747
C         -2.66982        2.46620        2.11009
C         -3.18332        1.31363        2.69800
C         -2.51019        0.12895        2.48790
N         -1.38671        0.03682        1.74986
C         -0.89678        1.17073        1.18176
H          1.77253        0.16425       -0.26679
H          1.65185        2.34863       -0.79111
H          0.38554        4.44977       -0.38658
H         -3.17544        3.41724        2.25591
H         -4.08315        1.34538        3.30121
H         -2.86145       -0.80480        2.91724
