23

Cl         1.39888        1.53633       -0.02329
C         -0.09870        0.67786        0.02886
C         -1.23517        1.37653        0.44679
C         -2.47542        0.73426        0.51281
C         -2.58399       -0.60986        0.14698
O         -3.74486       -1.35173        0.20359
C         -4.94430       -0.67983        0.15358
C         -5.36361       -0.13592       -1.06099
C         -6.59984        0.50555       -1.14218
Cl        -7.03823        1.16957       -2.67831
C         -7.43163        0.59306       -0.01320
Cl        -8.96529        1.40436       -0.13106
C         -7.01498        0.02022        1.20562
Cl        -8.03477        0.11393        2.61310
C         -5.76938       -0.62713        1.28504
Cl        -5.21147       -1.35306        2.75927
C         -1.44597       -1.31240       -0.25806
C         -0.20458       -0.67205       -0.32164
Cl         1.15545       -1.60499       -0.83606
H         -1.15971        2.42357        0.73313
H         -3.33140        1.30057        0.86789
H         -4.72687       -0.21776       -1.93953
H         -1.53065       -2.36462       -0.52085
