40

O          3.10499       -2.27622        0.64422
C          3.19916       -1.07738        0.81014
O          3.28757       -0.10864       -0.12286
C          3.74224       -0.42455       -1.44255
C          4.51321        0.79586       -2.00145
C          5.65020        1.23201       -1.11276
O          5.05097        2.13724       -0.18790
C          3.97464        2.78695       -0.91316
C          2.72582        2.81141        0.00586
Br         2.83513        4.08788        1.48680
C          4.41623        4.20705       -1.32796
C          5.73069        4.63810       -1.02811
C          6.10534        5.98049       -1.11617
C          5.16811        6.92860       -1.49655
Cl         5.58488        8.59658       -1.47866
C          3.89277        6.53292       -1.88071
C          3.53128        5.17822       -1.84018
Cl         1.95442        4.80303       -2.44033
O          3.69422        1.98125       -2.08773
C          3.48711       -0.36931        2.07251
C          4.82361       -0.01995        2.30572
C          5.14363        0.85762        3.33595
C          4.13181        1.36126        4.15082
C          2.80172        0.97948        3.94364
C          2.46956        0.11361        2.89676
H          4.40556       -1.29808       -1.41481
H          2.87005       -0.64258       -2.06445
H          4.87644        0.54153       -3.00290
H          6.40733        1.77915       -1.68526
H          6.15169        0.41636       -0.58499
H          1.79546        3.01259       -0.52725
H          2.56701        1.87112        0.52077
H          6.47652        3.93849       -0.65586
H          7.11409        6.27645       -0.83983
H          3.16846        7.28196       -2.19159
H          5.60426       -0.37990        1.64202
H          6.17340        1.17480        3.47684
H          4.37924        2.07159        4.93642
H          2.02262        1.39439        4.57925
H          1.42916       -0.13219        2.70486
