20

N         -1.86405       -2.08918       -0.15136
C         -1.38508       -0.76798       -0.00622
C         -2.32075        0.27488       -0.06809
C         -1.91504        1.60516       -0.02422
C         -0.55958        1.91324        0.03567
C          0.40773        0.89831        0.02734
C          1.77329        1.22942        0.04664
C          2.75310        0.23896        0.01320
C          2.37968       -1.09664       -0.04556
C          1.02559       -1.44192       -0.06301
C          0.00558       -0.46209       -0.01639
H         -1.25886       -2.78116        0.27587
H         -2.82552       -2.19963        0.15498
H         -3.38214        0.05312       -0.14255
H         -2.65434        2.40096       -0.04892
H         -0.26121        2.95896        0.06475
H          2.08571        2.27103        0.07994
H          3.80460        0.51254        0.02421
H          3.13809       -1.87411       -0.08212
H          0.77515       -2.49687       -0.12465
