14

O          1.04914       -0.27401        0.00992
N          2.25123       -0.02109        0.15240
C          3.01564       -1.11371        0.51012
C          4.21760       -0.88916        1.19215
C          5.04402       -1.96008        1.56502
C          4.68801       -3.28048        1.26427
N          5.54893       -4.29229        1.64051
O          5.00501       -5.39581        1.76558
C          3.49257       -3.50531        0.56613
C          2.66608       -2.43441        0.19331
H          4.52156        0.12591        1.44202
H          5.97140       -1.75271        2.09625
H          3.19249       -4.51719        0.30030
H          1.74764       -2.64467       -0.35156
