84

O          0.93532        0.06246        0.04376
P          2.48367        0.06246        0.04376
O          2.47362       -1.58189        0.13903
O          2.51978        0.08392       -1.60443
C          4.31367        0.06246        0.04376
N          4.95434       -0.44998        1.28520
C          6.17472       -1.19086        0.88382
C          7.38389       -0.26129        0.90908
C          7.62581        0.36850        2.27733
C          7.75868       -0.65490        3.41046
C          8.84240       -0.37170        4.44482
C          9.19118        1.08259        4.74068
N          8.28998        1.92152        5.51438
C          8.80702        3.26436        5.67122
P          8.19702        4.40563        4.37726
O          9.17304        5.49044        4.83291
O          8.99074        3.63532        3.17975
O          7.62035        5.48453        3.15402
C          6.84702        1.90583        5.39699
P          6.23702        3.04709        4.10304
O          4.95782        2.26462        4.02307
O          5.83832        4.18785        5.21739
O          5.66034        4.12599        2.87979
C          4.17984       -1.22236        2.26474
C          3.13135       -0.55577        3.20477
C          2.78852        0.92479        3.07310
C          1.36296        1.41431        2.85238
C          1.12463        2.79378        3.49079
C          2.20230        3.89689        3.35236
N          2.23832        4.75563        2.17075
C          2.79364        6.07698        2.48230
P          4.62364        6.07699        2.48230
O          4.63721        6.88201        1.17847
O          4.68406        7.17379        3.69311
O          6.35364        6.07700        2.48230
C          2.79365        4.27668        0.89443
P          4.62365        4.27668        0.89443
O          4.63257        2.79627        1.25309
O          4.69597        4.25516       -0.73679
O          6.35365        4.27668        0.89443
H          1.52756       -1.84259        0.21890
H          1.62801       -0.19226       -1.90532
H          4.59026       -0.56740       -0.81190
H          4.69047        1.05374       -0.20635
H          6.37095       -2.04878        1.53696
H          6.09506       -1.64511       -0.11276
H          8.27913       -0.82194        0.61445
H          7.26103        0.53976        0.16904
H          8.50706        1.00232        2.17703
H          6.78986        1.03362        2.50441
H          6.79605       -0.74829        3.92406
H          7.96566       -1.65284        3.00581
H          8.61136       -0.90315        5.37587
H          9.76361       -0.83872        4.06676
H         10.11958        1.02572        5.32875
H          9.50872        1.55894        3.81539
H          8.47857        3.66796        6.63731
H          9.90446        3.27325        5.70217
H          9.72680        4.19775        2.86385
H          7.89272        6.40805        3.33648
H          6.48147        0.88914        5.23912
H          6.41619        2.19764        6.36398
H          4.88616        4.13914        5.44452
H          5.28593        3.26466        2.47607
H          3.76808       -2.14072        1.83671
H          4.91264       -1.62768        2.97934
H          2.23030       -1.17086        3.26457
H          3.59129       -0.63201        4.20577
H          3.04692        1.33922        4.04687
H          3.40632        1.37545        2.31333
H          1.13650        1.52121        1.79567
H          0.64945        0.69609        3.27202
H          0.14946        3.18025        3.17129
H          1.01857        2.60689        4.57047
H          1.96038        4.55027        4.20421
H          3.19194        3.53322        3.58362
H          2.40411        6.80049        1.75365
H          2.41597        6.44277        3.44516
H          5.08715        7.99087        3.33713
H          6.57092        5.11975        2.57179
H          2.37256        3.30362        0.61842
H          2.46359        4.97174        0.11180
H          5.09114        3.40929       -1.02739
H          6.65861        5.20822        0.75245
