41

C          0.91507       -0.23967        0.08751
O          1.23894       -1.47692        0.72815
C          1.31170       -2.51443       -0.16179
C          0.39173       -3.54508        0.01456
C          0.38821       -4.64136       -0.85412
O         -0.46520       -5.65372       -0.51046
C          0.24860       -6.79271       -0.02639
C          1.23426       -4.67110       -1.97205
N          1.18060       -5.59370       -3.04029
C          0.15608       -6.36307       -3.55428
O          0.40957       -7.20975       -4.40499
C         -1.25187       -6.14411       -3.17256
C         -1.94715       -7.25901       -2.68480
C         -3.21998       -7.10730       -2.11945
C         -3.88332       -8.19304       -1.52833
C         -5.11843       -8.01618       -0.90485
C         -5.70981       -6.75637       -0.87745
C         -5.07289       -5.67107       -1.48227
C         -3.82523       -5.82831       -2.10547
C         -3.15923       -4.74158       -2.69752
C         -1.88138       -4.89808       -3.23197
O         -1.31391       -3.77844       -3.77660
C          2.23744       -3.69656       -2.06138
C          2.28463       -2.62863       -1.15739
Cl         3.57708       -1.49594       -1.31846
H          0.17185        0.27667        0.70265
H          0.49321       -0.36298       -0.91769
H          1.80825        0.39021        0.04247
H         -0.31977       -3.50516        0.83574
H          0.73490       -7.33210       -0.84486
H          0.98478       -6.51540        0.73577
H         -0.47835       -7.46914        0.43375
H          2.02895       -5.71089       -3.58479
H         -1.45723       -8.23055       -2.68122
H         -3.43177       -9.18268       -1.53059
H         -5.61333       -8.86077       -0.43271
H         -6.66624       -6.61571       -0.38081
H         -5.54934       -4.69391       -1.44573
H         -3.62032       -3.75706       -2.71642
H         -0.45049       -4.01357       -4.15623
H          2.97108       -3.73568       -2.86311
