24

O          2.24302       -1.65061        0.64111
C          1.46824       -0.58719        0.27660
C          0.11025       -0.87514        0.12269
C         -0.79191        0.14991       -0.14394
Cl        -2.47114       -0.19784       -0.27739
C         -0.34486        1.46169       -0.27703
C          1.01885        1.74019       -0.15743
C          1.94355        0.71978        0.10683
O          3.23421        1.17750        0.24565
C          4.30673        0.34292        0.05978
C          4.49363       -0.36600       -1.13012
C          5.60826       -1.19812       -1.27037
C          6.53985       -1.29759       -0.23574
Cl         7.89952       -2.33757       -0.40626
C          6.38012       -0.56330        0.93690
C          5.26799        0.26529        1.07755
Cl         5.08338        1.15187        2.54784
H          2.98146       -1.31517        1.17491
H         -0.23949       -1.89700        0.24770
H         -1.04793        2.26868       -0.46387
H          1.36256        2.76854       -0.25647
H          3.77465       -0.28792       -1.94169
H          5.74367       -1.76840       -2.18678
H          7.11304       -0.63779        1.73554
