22

C          1.04921       -0.09813       -0.03972
C          0.44739        1.28463        0.23637
C         -0.61854        1.65235       -0.78951
C         -0.76874        2.89336       -1.29412
C          0.05595        4.08201       -0.85299
C          0.83809        3.72647        0.39583
C          2.01960        4.55797        0.75923
O          2.16028        5.75149        0.56114
O          2.88534        3.76665        1.45874
C          2.50647        2.45995        1.33030
O          2.98548        1.52837        1.95179
C          1.50966        2.38019        0.22143
H          0.57656       -0.60698       -0.88636
H          0.91081       -0.74034        0.83830
H          2.12569       -0.05450       -0.23491
H         -0.03985        1.24510        1.21986
H         -1.28614        0.86171       -1.12922
H         -1.53461        3.07752       -2.04538
H          0.71544        4.39793       -1.66896
H         -0.61094        4.92490       -0.63628
H          0.16990        3.73276        1.27020
H          2.08842        2.34105       -0.71479
