43

C          0.88432       -0.08868       -0.02645
O          0.33413        0.25530       -1.29310
C          0.90395        1.33166       -1.91447
C          0.09313        1.98207       -2.84082
C          0.56220        3.10309       -3.53200
C          1.87081        3.59351       -3.33514
C          2.34324        4.88256       -4.08003
Cl         2.02970        4.54846       -5.88253
C          1.48653        6.10229       -3.62060
C          0.99209        7.07918       -4.50631
C          0.26922        8.18256       -4.03979
C          0.04326        8.35042       -2.67736
C          0.53504        7.41332       -1.77641
C          1.24484        6.30349       -2.24097
C          3.87698        5.14863       -3.98677
C          4.41084        6.30804       -3.39580
C          5.79237        6.48541       -3.25996
C          6.68601        5.51527       -3.70760
O          8.00320        5.80076       -3.48138
C          8.93005        4.74444       -3.69811
C          6.18759        4.37738       -4.33337
C          4.80417        4.19881       -4.47334
C          2.67161        2.91961       -2.39276
C          2.19969        1.79421       -1.70295
H          0.22135       -0.82609        0.43618
H          0.92977        0.78166        0.63766
H          1.87006       -0.55088       -0.13787
H         -0.92011        1.62797       -3.01385
H         -0.11783        3.60255       -4.22121
H          1.16262        7.01351       -5.57828
H         -0.11026        8.91689       -4.74642
H         -0.50949        9.21455       -2.31866
H          0.37339        7.54614       -0.70969
H          1.62944        5.59973       -1.50416
H          3.77312        7.10376       -3.01816
H          6.17161        7.38835       -2.78685
H          8.66712        3.85628       -3.11326
H          9.00973        4.50726       -4.76359
H          9.91181        5.08693       -3.35697
H          6.84351        3.60625       -4.72394
H          4.45194        3.28643       -4.95470
H          3.68000        3.25775       -2.16455
H          2.87295        1.29895       -1.01067
