39

C          0.38276        0.16742        0.09668
C         -0.33997       -0.74020        1.06278
O         -1.42400       -0.44954        1.54977
C          0.25927       -2.06914        1.34077
C         -0.57150       -3.19032        1.41115
C         -0.01093       -4.46289        1.57411
C          1.37185       -4.62064        1.68916
O          1.82659       -5.88813        1.84088
C          3.01745       -6.35683        1.18112
O          3.11957       -6.25517       -0.22695
C          3.86333       -5.18717       -0.80864
C          2.87961       -4.25704       -1.54989
O          3.47373       -3.07029       -2.05308
C          4.97583       -4.51822        0.03744
O          4.78764       -3.09285        0.16325
C          5.28891       -5.12122        1.41674
O          5.46549       -4.05070        2.37591
C          4.33074       -6.18386        1.95539
O          4.15306       -6.00944        3.37192
C          2.16686       -3.48815        1.75162
C          1.62980       -2.21628        1.53726
H         -0.08905        1.15430        0.11053
H          0.30526       -0.24478       -0.91334
H          1.43134        0.30144        0.36802
H         -1.64983       -3.07939        1.31822
H         -0.66193       -5.33353        1.60300
H          2.83749       -7.43535        1.28801
H          4.41934       -5.68268       -1.61774
H          2.44891       -4.79889       -2.40021
H          2.02639       -3.98620       -0.92687
H          3.92196       -2.65533       -1.28272
H          5.90063       -4.59631       -0.55083
H          5.27782       -2.85148        0.98315
H          6.28031       -5.58813        1.35814
H          5.20768       -4.44511        3.24072
H          4.87005       -7.13428        1.83594
H          3.27737       -6.38029        3.60197
H          3.21570       -3.55555        1.97806
H          2.29980       -1.36144        1.55002
