10

C          0.93261       -0.05194       -0.05448
C          0.42973       -1.41011       -0.51122
N          0.90137       -2.45551        0.38722
H          0.57985        0.18197        0.95571
H          0.56921        0.73087       -0.72798
H          2.02721       -0.01347       -0.05281
H         -0.66486       -1.41249       -0.52651
H          0.77964       -1.61332       -1.52871
H          0.59665       -3.36356        0.03912
H          1.92041       -2.47625        0.38572
