31

C          0.82576       -0.08555       -0.11856
C          0.45195       -0.21647        1.36148
C          0.56742       -1.65804        1.85849
C         -0.69556       -2.49398        1.76382
C         -1.94809       -1.72347        2.04764
C         -3.11675       -2.43932        2.37218
C         -4.31872       -1.77450        2.57428
F         -5.41816       -2.47441        2.88113
C         -4.39303       -0.40079        2.45052
C         -3.23308        0.31689        2.13119
C         -3.33577        1.79181        1.99302
O         -4.42731        2.33593        2.11889
C         -2.09520        2.54821        1.70098
C         -2.08073        4.01688        1.56332
O         -3.01538        4.78587        1.70476
O         -0.86905        4.51366        1.23655
C         -0.97453        1.82272        1.55742
N         -0.84696        0.43920        1.63285
C         -1.98840       -0.32624        1.92904
H          0.78946        0.95955       -0.44771
H          0.15578       -0.66172       -0.76217
H          1.85246       -0.43163       -0.28398
H          1.21692        0.34650        1.91593
H          1.37364       -2.18133        1.32624
H          0.88240       -1.63199        2.90939
H         -0.78228       -2.94522        0.76888
H         -0.60714       -3.31757        2.48560
H         -3.10124       -3.52232        2.46512
H         -5.34468        0.10148        2.60025
H         -1.04094        5.47811        1.17873
H         -0.02739        2.31454        1.34649
