65

C          2.36904       -1.69110       -1.00380
C          1.65352       -2.95267       -0.54365
C          1.48648       -3.05168        0.97579
C          0.73521       -1.87702        1.58523
O         -0.47996       -1.66947        0.88003
C         -1.12663       -0.44448        1.20257
C         -0.64006        0.71433        0.33641
O          0.55473        1.39388        0.70348
P          1.13139        1.51670        2.32991
O          2.57233        1.37510        1.83007
O          0.76720        3.11522        2.35322
C         -0.44642        3.64780        1.84950
C         -0.31343        4.16658        0.40904
O          0.54751        5.29470        0.27684
C          1.93745        5.00250        0.42103
C          2.50581        5.42186        1.78419
C          1.68914        6.46324        2.55942
C          1.45852        6.05195        4.00807
O          1.70805        1.63952        3.95634
C          1.81974        0.37411        4.59280
C          0.56614        0.06019        5.40690
O         -0.62445        0.10698        4.61671
C         -1.28599        1.37068        4.56289
C         -2.26540        1.63520        5.69876
C         -1.65008        2.11841        7.01328
C         -0.65544        3.26260        6.85862
H          1.80501       -0.78908       -0.75111
H          2.48903       -1.70433       -2.09142
H          3.36159       -1.61354       -0.54994
H          0.67120       -3.00413       -1.02836
H          2.21801       -3.82620       -0.88860
H          0.93943       -3.97520        1.19639
H          2.46809       -3.13393        1.45754
H          0.50805       -2.07898        2.63815
H          1.36452       -0.99141        1.53228
H         -2.18697       -0.60499        0.96940
H         -1.05277       -0.23985        2.26391
H         -0.47507        0.35015       -0.68351
H         -1.43436        1.46281        0.27136
H         -1.24411        2.90498        1.92716
H         -0.73070        4.47920        2.50090
H          0.00627        3.40598       -0.30618
H         -1.30472        4.49938        0.08081
H          2.15831        3.94741        0.21194
H          2.45167        5.57459       -0.35877
H          2.66406        4.52665        2.39554
H          3.52161        5.80579        1.62367
H          2.22610        7.41795        2.54329
H          0.71327        6.65812        2.10623
H          2.40595        5.91525        4.53639
H          0.87836        6.81981        4.52886
H          0.89588        5.11613        4.07457
H          1.99756       -0.40282        3.84528
H          2.69348        0.40205        5.25263
H          0.65410       -0.96521        5.78721
H          0.49711        0.71603        6.26962
H         -0.58457        2.19226        4.43877
H         -1.88087        1.34064        3.64194
H         -2.96102        2.41266        5.35623
H         -2.85968        0.73573        5.89300
H         -2.46727        2.45671        7.66182
H         -1.17592        1.28146        7.53538
H         -1.08195        4.08412        6.27490
H         -0.37171        3.64908        7.84179
H          0.26621        2.94018        6.36472
