29

C          0.68854       -0.01229        0.16315
C          0.44020        0.81372       -1.09058
C          0.94799        0.18763       -2.37179
C         -0.15102       -0.34413       -3.26961
C          2.24165        0.04267       -2.72922
C          3.48704        0.39314       -1.95554
C          4.11732       -0.76907       -1.14775
C          4.84377       -1.90030       -1.88975
C          6.34666       -1.84926       -1.87990
C          4.20774       -2.96990       -2.42044
C          2.68774       -2.96990       -2.42044
N          1.42678       -2.96990       -2.42044
H          0.37950       -1.05454        0.03384
H          0.12369        0.40542        1.00364
H          1.74300        0.00636        0.44778
H         -0.64417        0.96824       -1.17486
H          0.86821        1.81493       -0.97225
H          0.23941       -0.80141       -4.18524
H         -0.73236       -1.10999       -2.74269
H         -0.83280        0.45930       -3.56447
H          2.44568       -0.42280       -3.69486
H          4.22667        0.80047       -2.65446
H          3.25331        1.20587       -1.25716
H          4.82731       -0.31571       -0.44301
H          3.35549       -1.21710       -0.49761
H          6.77573       -2.85494       -1.80596
H          6.71839       -1.37358       -2.79168
H          6.72351       -1.28586       -1.01995
H          4.70552       -3.80350       -2.89858
