18

C          0.85840        0.01420        0.22151
O          0.51762        0.56882        1.48829
C          0.90776       -0.23756        2.52235
C          2.22910       -0.58720        2.73826
N          2.60627       -1.33837        3.79345
C          1.60193       -1.69679        4.63553
C          1.82074       -2.44825        5.76803
N          0.86708       -2.82737        6.64442
C         -0.36854       -2.41754        6.34579
N         -0.71504       -1.68980        5.27916
C          0.25688       -1.33329        4.43849
N         -0.07647       -0.59931        3.37105
H          0.32145        0.57886       -0.54686
H          0.55611       -1.03623        0.14364
H          1.92987        0.12177        0.02374
H          3.02709       -0.25975        2.08318
H          2.82687       -2.77839        6.01150
H         -1.16264       -2.69942        7.02941
