20

C          0.97788        0.10081       -0.00430
C          0.39693        0.45874       -1.35590
C         -0.97907       -0.11273       -1.59801
O         -1.50698        0.73912       -2.61469
C         -0.92284        2.02383       -2.34566
C         -1.95992        2.91712       -1.67500
C         -0.43927        2.62649       -3.65784
O          0.19092        1.87140       -1.45100
H          1.07311       -0.98251        0.11387
H          0.35467        0.49175        0.80756
H          1.96688        0.55546        0.11619
H          1.08417        0.16855       -2.15944
H         -0.96084       -1.15109       -1.94019
H         -1.62702       -0.03610       -0.71788
H         -1.54550        3.90440       -1.44581
H         -2.84904        3.03498       -2.30287
H         -2.28956        2.47873       -0.72597
H          0.30667        1.97547       -4.12787
H         -1.26297        2.74118       -4.37026
H          0.03611        3.59982       -3.49733
