23

N          0.57337        0.70309        0.32602
C          0.29157        1.05169       -0.94441
O         -0.79851        0.78053       -1.42816
N          1.22619        1.70727       -1.72413
S          2.86454        1.89153       -1.62229
O          3.37805        1.66988       -2.95735
O          3.12368        3.13042       -0.92147
C          3.45687        0.55779       -0.61786
C          4.05149        0.84882        0.61391
C          4.39065       -0.19320        1.47679
C          4.19224       -1.52452        1.09998
N          4.36016       -2.54554        2.04126
C          3.59188       -1.79700       -0.13577
C          3.24735       -0.76366       -1.01234
H         -0.13469        0.17956        0.82321
H          1.41541        0.94072        0.82238
H          0.90862        1.82261       -2.68324
H          4.21637        1.87771        0.92867
H          4.79987        0.04467        2.45596
H          4.49552       -3.46661        1.63595
H          5.04900       -2.33927        2.75873
H          3.37236       -2.82393       -0.41877
H          2.78232       -0.99523       -1.96758
