51

C          0.54096        2.55245       -1.24621
C          0.34236        1.93497        0.15364
C          1.18954        2.73704        1.16845
C         -1.12727        2.08033        0.61382
C         -2.05923        1.18802       -0.18351
C         -1.71509       -0.31050       -0.02203
C         -2.26679       -1.00911       -1.28679
C         -2.45107       -0.86840        1.21664
C         -0.20338       -0.57365        0.09472
C          0.25046       -1.91581        0.16848
C          1.59563       -2.27004        0.10605
N          2.10487       -3.58758        0.10473
C          1.53390       -4.84201        0.11148
O          2.24291       -5.84123        0.22111
C          0.08283       -5.03974       -0.00035
C         -0.62176       -5.47512        1.12702
C         -2.01741       -5.48657        1.10152
C         -2.69812       -5.07200       -0.05097
C         -4.16785       -4.89518        0.03333
O         -4.89701       -5.35411        0.88691
O         -4.62386       -4.03632       -0.89857
C         -1.98168       -4.75641       -1.21482
C         -0.58419       -4.74531       -1.19426
C          2.52513       -1.23482        0.03792
C          2.11246        0.10327        0.04980
C          0.75109        0.46013        0.10562
H          1.60038        2.57047       -1.52836
H          0.01783        1.98668       -2.02502
H          0.17617        3.58521       -1.27793
H          1.14183        2.28658        2.16704
H          2.24443        2.79508        0.88182
H          0.82667        3.76866        1.25025
H         -1.22143        1.83316        1.67965
H         -1.45465        3.12277        0.50967
H         -3.09689        1.37576        0.12175
H         -2.01527        1.48441       -1.23884
H         -2.10204       -2.08566       -1.26934
H         -3.34572       -0.84952       -1.39162
H         -1.77963       -0.62884       -2.19339
H         -3.52648       -0.66213        1.16311
H         -2.34785       -1.95543        1.30636
H         -2.06897       -0.42673        2.14325
H         -0.50739       -2.67266        0.28419
H          3.11565       -3.66539        0.13535
H         -0.08898       -5.75158        2.03402
H         -2.57037       -5.76735        1.99606
H         -5.57035       -3.92094       -0.67034
H         -2.50353       -4.44811       -2.11839
H         -0.02722       -4.42831       -2.07269
H          3.59051       -1.44471       -0.01996
H          2.88277        0.86975        0.00022
