37

C          1.68441        0.06440        0.21616
C          1.37257       -0.06046       -1.26549
C          1.17110       -1.49117       -1.78547
C          0.34947       -2.46639       -0.93228
C         -1.22218       -2.50988       -0.92522
O         -1.64549       -2.97273       -2.22374
C         -1.61101       -3.70638        0.02759
N         -1.07277       -3.77035        1.37644
C         -0.63114       -2.78836        2.21302
N         -0.27245       -3.30225        3.36713
C         -0.51184       -4.62947        3.19270
N         -1.01054       -4.96631        2.00055
C         -1.96986       -1.19008       -0.63192
C         -2.70101       -1.01754        0.56463
C         -3.18166        0.22934        0.97966
C         -2.99385        1.33885        0.17578
Cl        -3.48019        2.89131        0.72420
C         -2.44423        1.18135       -1.08613
C         -1.99324       -0.08042       -1.50637
Cl        -1.56649       -0.18324       -3.18434
H          0.86499       -0.31075        0.83307
H          1.82263        1.11833        0.47945
H          2.59993       -0.47460        0.47536
H          0.50910        0.56535       -1.48256
H          2.19897        0.38944       -1.83033
H          0.81617       -1.48090       -2.81956
H          2.17990       -1.92533       -1.85036
H          0.66469       -3.46142       -1.28560
H          0.73830       -2.39797        0.08399
H         -1.45091       -2.27658       -2.87728
H         -2.70119       -3.80364        0.11156
H         -1.28242       -4.63893       -0.45681
H         -0.57900       -1.74097        1.96451
H         -0.31887       -5.37014        3.95793
H         -2.92074       -1.84350        1.23627
H         -3.68652        0.31872        1.93934
H         -2.36864        2.03883       -1.75054
