36

C          2.49541       -0.25091        0.01594
C          1.00093       -0.10592       -0.11620
C          0.26570       -1.30295       -0.21688
C         -1.12101       -1.28720       -0.33439
C         -1.78949       -0.07177       -0.39703
C         -1.07546        1.12647       -0.30880
C          0.31142        1.12654       -0.11751
N          1.04229        2.31302        0.08502
C          0.72320        3.59065        0.48737
O          1.57672        4.46438        0.33233
C         -0.54979        3.96656        1.15099
C         -1.03764        5.25233        0.85739
C         -2.25569        5.71099        1.38382
C         -2.73143        7.00400        1.11307
C         -3.97317        7.42052        1.59423
C         -4.75746        6.54672        2.34150
C         -4.28146        5.27104        2.64895
C         -3.02099        4.84851        2.19707
C         -2.49184        3.59889        2.55339
C         -1.24448        3.18634        2.07849
O         -0.78299        2.01331        2.60804
H          2.73261       -0.93831        0.83522
H          2.90885       -0.65246       -0.91541
H          3.01649        0.68240        0.23514
H          0.77957       -2.26253       -0.18637
H         -1.67498       -2.22093       -0.38576
H         -2.87082       -0.05163       -0.50808
H         -1.63668        2.05115       -0.39893
H          2.01873        2.28276       -0.18240
H         -0.45667        5.90522        0.20616
H         -2.13360        7.69958        0.52758
H         -4.32952        8.42466        1.37927
H         -5.73562        6.86132        2.69589
H         -4.90241        4.60695        3.24625
H         -3.03977        2.94243        3.22604
H          0.09897        1.81937        2.24589
