21

C          0.87029        0.09381        0.34118
C          0.43221        1.24365       -0.55465
C          1.05570        1.22404       -1.95613
C          0.58924        0.09566       -2.84184
C         -0.26791        0.27703       -3.85668
C         -0.65344       -0.87198       -4.70144
O         -1.41735       -0.73249       -5.64936
N         -0.10416       -2.07693       -4.35906
C          0.77966       -2.26209       -3.33760
S          1.42065       -3.75450       -2.98733
N          1.11439       -1.15461       -2.61250
H          0.42698       -0.85386        0.02221
H          0.54528        0.27467        1.37083
H          1.95978       -0.01246        0.34510
H         -0.66197        1.25218       -0.62589
H          0.72305        2.18278       -0.06791
H          0.81718        2.18187       -2.43813
H          2.15002        1.19892       -1.87766
H         -0.70340        1.23451       -4.11084
H         -0.36291       -2.87123       -4.92545
H          1.78163       -1.29115       -1.85928
