15

N          1.06982        0.01046        0.08773
C          0.39251       -0.72702        0.91455
N         -0.97818       -0.71897        0.90421
C         -1.72678       -1.47626        1.75085
Cl        -3.40949       -1.31132        1.56189
C         -1.14423       -2.27691        2.64910
C          0.35435       -2.29898        2.67710
N          0.94652       -3.09420        3.57010
N          1.03835       -1.58151        1.87383
O          2.32061       -1.61396        1.91212
H          2.07434       -0.15895        0.27836
H         -1.45536       -0.12338        0.23549
H         -1.71693       -2.89000        3.33439
H          1.96873       -3.09555        3.57388
H          0.44641       -3.68042        4.22648
