45

C          1.19232        0.62288       -0.19201
C          0.59587       -0.51502        0.61585
C          1.19214       -0.66586        1.98651
C          0.87984        0.20129        3.03303
C          1.29484       -0.10125        4.33140
C          2.03502       -1.25965        4.55145
C          2.29189       -1.76455        5.95581
C          1.06910       -2.48091        6.56809
O          1.14947       -3.92324        6.51782
C          0.69014       -4.39745        5.32023
C         -0.67108       -4.49440        5.04945
C         -1.09502       -4.77669        3.74711
C         -0.15883       -4.95385        2.71629
C         -0.61110       -4.98991        1.26970
C         -0.33625       -6.25826        0.45691
S         -1.06851       -7.74756        1.20874
C          0.49529       -8.41807        1.59561
O          0.65901       -9.40520        2.29232
N          1.47677       -7.70393        0.99652
C          1.14039       -6.55877        0.34028
O          1.95392       -5.83964       -0.22640
C          1.20304       -4.97303        3.04802
C          1.62379       -4.73936        4.35485
N          2.47318       -2.02451        3.52818
C          2.02835       -1.73120        2.28500
H          0.99735        1.59140        0.27888
H          0.74779        0.63993       -1.19303
H          2.27501        0.50700       -0.30264
H         -0.48700       -0.36888        0.71820
H          0.71488       -1.45147        0.05579
H          0.26917        1.08262        2.85658
H          1.00199        0.53781        5.15764
H          3.16436       -2.42816        5.95458
H          2.54866       -0.89705        6.57604
H          1.05349       -2.24753        7.63939
H          0.11496       -2.11315        6.16747
H         -1.39959       -4.29980        5.83029
H         -2.16184       -4.79505        3.53558
H         -1.68869       -4.77951        1.22747
H         -0.13705       -4.13317        0.76981
H         -0.73552       -6.14815       -0.55750
H          2.43936       -7.98194        1.09908
H          1.97721       -5.05713        2.29106
H          2.68536       -4.68028        4.57890
H          2.33749       -2.43845        1.51943
