39

C          1.15445       -0.12402        0.08894
O          0.53847       -1.38815        0.29909
C          1.03840       -2.37093       -0.48849
C          2.41050       -2.67368       -0.72823
C          2.55563       -3.78873       -1.52337
S          1.05098       -4.51471       -1.87872
C          0.17808       -3.22515       -1.15239
C         -1.32122       -3.13312       -1.22570
N         -1.85766       -3.19933       -2.60558
C         -2.50752       -4.32137       -3.13901
O         -2.80220       -4.40440       -4.33575
C         -2.95405       -5.43736       -2.20551
Cl        -1.73527       -6.70862       -2.10061
C         -2.05945       -1.93237       -3.28084
C         -0.97941       -1.19430       -3.82197
C          0.43200       -1.69323       -3.91511
C         -1.20917        0.07458       -4.38972
C         -2.49213        0.58421       -4.51317
C         -3.56740       -0.16141       -4.05224
C         -3.37318       -1.40384       -3.41666
C         -4.61008       -2.11545       -2.93340
H          0.68862        0.58824        0.77683
H          0.97385        0.22487       -0.93310
H          2.22586       -0.14380        0.30932
H          3.25486       -2.11728       -0.34388
H          3.47263       -4.23684       -1.88169
H         -1.72375       -3.93264       -0.60134
H         -1.67481       -2.19835       -0.77292
H         -3.22270       -5.08265       -1.20896
H         -3.86429       -5.88416       -2.61978
H          1.00645       -1.37175       -3.04607
H          0.45996       -2.77519       -4.04545
H          0.93377       -1.28133       -4.79859
H         -0.37621        0.65370       -4.78491
H         -2.65379        1.54512       -4.99352
H         -4.57100        0.23597       -4.19016
H         -4.86441       -2.94280       -3.60196
H         -4.47710       -2.48317       -1.91216
H         -5.47419       -1.44097       -2.91548
