22

C          1.25481       -0.08650       -0.25753
C          0.35657       -1.31868       -0.21150
C          0.95587       -2.57720       -0.87501
N          1.85690       -3.37709       -0.03025
N          3.10240       -2.96641       -0.02517
O          3.83842       -3.76327        0.56426
C          1.22019       -3.60658        1.27989
C          0.70502       -2.33249        1.97280
C          1.78660       -1.47942        2.62782
O         -0.14295       -1.56230        1.11094
H          0.91115        0.67418        0.45132
H          1.24650        0.34900       -1.26250
H          2.29640       -0.31160       -0.02225
H         -0.53691       -1.05375       -0.79130
H          0.11839       -3.23656       -1.14209
H          1.42954       -2.31606       -1.83158
H          1.86303       -4.17888        1.96142
H          0.35280       -4.25617        1.09473
H          0.04789       -2.65998        2.78839
H          1.34509       -0.57798        3.06602
H          2.29212       -2.04006        3.42053
H          2.55200       -1.14392        1.92785
