34

C          1.37264       -0.10346        0.13870
S          0.93617        1.03456       -1.14822
O          1.93471        0.96073       -2.19698
O         -0.47118        0.85398       -1.44405
C          1.11269        2.63446       -0.39071
C          2.38649        3.11734       -0.07804
C          2.52052        4.40027        0.46009
C          1.38299        5.19198        0.67776
C          1.59044        6.55672        1.20821
O          1.86219        6.64647        2.40310
C          1.51388        7.75434        0.27597
C          2.00392        7.47703       -1.11674
O          3.20947        7.39107       -1.35818
C          0.99141        7.12557       -2.17210
C         -0.15874        8.10770       -2.20221
C         -0.73423        8.50105       -0.85304
C          0.20776        8.50000        0.33390
O         -0.14981        9.06371        1.37215
C          0.10977        4.67428        0.42044
Cl        -1.33436        5.52098        0.81021
C         -0.02547        3.40669       -0.14724
H          1.16269       -1.11375       -0.21950
H          0.76747        0.10833        1.02212
H          2.43622       -0.00227        0.36086
H          3.27448        2.51474       -0.26283
H          3.51147        4.78168        0.70608
H          2.25083        8.47476        0.66656
H          0.64249        6.10502       -2.00095
H          1.49215        7.13652       -3.14764
H         -0.96447        7.68137       -2.81484
H          0.16276        9.01588       -2.72526
H         -1.58152        7.85453       -0.61170
H         -1.13986        9.51704       -0.94139
H         -1.01541        3.02482       -0.39282
