13

O          1.05925       -0.00948       -0.08512
C          0.46333        0.96023       -0.84470
C          0.91888        1.20284       -2.14103
C          0.30648        2.19635       -2.90623
Cl         0.86283        2.50213       -4.50579
C         -0.75107        2.94436       -2.38892
C         -1.20525        2.69690       -1.09141
C         -0.59898        1.70410       -0.31814
Cl        -1.18824        1.42800        1.27952
H          1.78940       -0.41411       -0.58106
H          1.73991        0.63080       -2.56146
H         -1.22485        3.71830       -2.98770
H         -2.02985        3.27974       -0.68879
