26

C          2.03370       -1.16974        0.02650
C          1.25152        0.05187       -0.43174
N          1.11290        0.11596       -1.89855
N          0.23173       -0.78834       -2.47028
C         -1.04988       -0.62596       -2.32418
C         -1.75443        0.48660       -1.74374
C         -1.47934        1.84047       -1.63660
C         -2.55710        2.43040       -0.92650
C         -3.42094        1.39701       -0.65667
N         -4.66209        1.35164        0.05004
O         -5.22981        0.25707        0.15110
O         -5.06382        2.42530        0.51831
O         -2.96714        0.22003       -1.16209
C          2.17441        0.49731       -2.72645
N          3.17894        1.20062       -2.12930
O          2.26057        0.27230       -3.93131
H          1.53629       -2.09330       -0.28733
H          2.11027       -1.17988        1.11821
H          3.04607       -1.17616       -0.38823
H          0.25667        0.03096        0.02301
H          1.73913        0.96164       -0.06925
H         -1.68831       -1.44446       -2.69887
H         -0.60403        2.33879       -2.03254
H         -2.68568        3.46762       -0.64745
H          3.87418        1.49770       -2.80398
H          2.91109        1.92569       -1.48265
