12

N          0.75936       -0.01366       -0.01274
C          0.20689       -0.57537        1.00181
O          0.96463       -1.08961        1.96682
C          0.39200       -1.67040        3.02091
N          1.11994       -2.16757        3.95522
O         -0.93375       -1.73698        3.10939
C         -1.68956       -1.22279        2.13952
N         -2.96999       -1.28642        2.22024
O         -1.12155       -0.64235        1.08580
H          1.77584       -0.06933        0.11923
H          0.48825       -2.56050        4.66258
H         -3.35480       -0.83737        1.38117
