22

Cl        -2.42625       -0.15038       -0.92527
C         -0.75925       -0.10748       -0.52799
C          0.29910       -1.51909       -0.82440
C          2.08518       -1.41952       -0.54231
C          2.89251        0.08950        0.04898
C          1.93988        1.57289        0.38388
C          0.08558        1.46157        0.05330
C         -0.53711        2.61723       -0.06136
C         -0.69593        2.04272        1.51256
Cl        -1.60529        2.95751        2.64967
C         -0.00099        0.63910        1.96771
C          0.87894       -0.15408        0.72334
C          1.10984        0.50534       -1.16289
Cl         1.90625        0.03316       -2.73497
C          0.27923        2.02032       -1.41217
Cl         0.25727        2.88877       -2.89481
H         -0.13109       -2.43963       -1.21275
H          2.70007       -2.29381       -0.75900
H          3.97464        0.10415        0.16694
H          2.41026        2.51651        0.64708
H         -0.07713        0.22815        2.96514
H          1.26731       -1.06933        1.22491
