20

C          0.96729       -0.05232       -0.05790
C          0.55834        1.38898        0.05599
N         -0.74394        1.57738        0.36152
C         -1.15017        2.84599        0.46028
N         -0.38936        3.92976        0.29078
C          0.90445        3.73931       -0.02513
C          1.76180        4.83483       -0.21172
O          1.25841        6.10658       -0.04989
C          3.10913        4.68905       -0.55279
C          3.63521        3.41634       -0.71958
C          2.81472        2.30556       -0.53467
C          1.44925        2.45170       -0.17679
H          0.88474       -0.38241       -1.09760
H          0.31224       -0.68000        0.55671
H          1.98653       -0.22169        0.29952
H         -2.19406        3.01253        0.70042
H          1.97647        6.75241       -0.12890
H          3.75034        5.55344       -0.69496
H          4.68008        3.28605       -0.99018
H          3.25232        1.31976       -0.67303
