18

C          0.89642        0.01884       -0.04000
C          0.62856        0.62518        1.32375
C          1.00613        2.08485        1.37164
O          0.18278        2.99144        1.42425
C          2.49362        2.42060        1.36122
O          3.31697        1.51901        1.46996
C          2.87119        3.87448        1.22288
C          2.60333        4.39506       -0.17585
H          0.40099        0.59260       -0.83008
H          0.52504       -1.00999       -0.07739
H          1.96685       -0.00162       -0.26667
H         -0.43997        0.54710        1.55540
H          1.16412        0.08614        2.11188
H          2.33563        4.46137        1.97606
H          3.93972        3.96678        1.44924
H          1.53290        4.40142       -0.40335
H          2.97471        5.41960       -0.27698
H          3.09876        3.77341       -0.92882
