59

C          1.07631       -0.42259       -0.16853
C          0.86363       -0.50798        1.33490
C          1.31369        0.75860        2.06694
C          0.57654        2.03015        1.63388
C         -0.94104        1.96065        1.83111
C         -1.35514        1.80193        3.29748
C         -0.92755        2.98300        4.17487
C         -1.53642        4.31469        3.72372
C         -3.06739        4.31800        3.78461
C         -3.60294        4.12654        5.20718
C         -3.16468        5.24397        6.15903
C         -3.66339        6.62417        5.71857
C         -5.19252        6.72533        5.70231
C         -5.82190        6.50852        7.08233
C         -5.34285        7.52162        8.12605
C         -5.73476        8.96396        7.79066
C         -7.24721        9.21558        7.80357
C         -7.92358        8.91014        9.13766
C         -7.50191        9.87674       10.20646
O         -8.10916       10.87826       10.54982
O         -6.31706        9.56700       10.76372
H          0.46714        0.36696       -0.61911
H          0.79475       -1.36576       -0.64505
H          2.12685       -0.22038       -0.39930
H         -0.19054       -0.72111        1.54459
H          1.43004       -1.36005        1.72702
H          1.19157        0.60607        3.14592
H          2.38831        0.90541        1.90708
H          0.99080        2.88247        2.18456
H          0.78803        2.24444        0.58083
H         -1.39463        2.86217        1.40439
H         -1.36360        1.13465        1.24975
H         -2.44162        1.66824        3.34647
H         -0.93934        0.87856        3.71396
H         -1.20122        2.77126        5.21430
H          0.16349        3.07470        4.18640
H         -1.12515        5.12169        4.33943
H         -1.21835        4.55738        2.70456
H         -3.43986        5.25481        3.35688
H         -3.48124        3.53718        3.13826
H         -4.69546        4.05960        5.17197
H         -3.27829        3.16276        5.61341
H         -3.51541        5.01121        7.16992
H         -2.07310        5.26880        6.24453
H         -3.23327        7.38676        6.37586
H         -3.27882        6.87325        4.72396
H         -5.48134        7.70204        5.30065
H         -5.61574        5.99825        5.00061
H         -6.91227        6.54331        6.98819
H         -5.60084        5.49736        7.44242
H         -5.73190        7.23331        9.10733
H         -4.25426        7.46790        8.23650
H         -5.23726        9.64020        8.49348
H         -5.34067        9.24484        6.80738
H         -7.42381       10.26435        7.53626
H         -7.72557        8.61840        7.01839
H         -9.01017        8.99947        9.02445
H         -7.74951        7.88508        9.47978
H         -6.13409       10.31245       11.37264
