34

C          0.86365        0.27277        0.20621
C          0.35150        0.12256        1.60892
C          0.18658       -1.16905        2.14086
C         -0.26021       -1.35377        3.45485
Cl        -0.45279       -2.94935        4.06942
C         -0.54420       -0.26207        4.27090
C         -0.36722        1.01620        3.75663
C          0.07827        1.20935        2.45090
C          0.21641        2.64769        2.13591
O          0.63581        3.03965        1.06045
C         -0.19405        3.51621        3.29907
C         -0.19791        4.86321        3.29221
S          0.23521        5.86490        1.92423
C         -0.03084        7.36145        2.81879
C          0.15075        8.63730        2.30113
C         -0.08657        9.73189        3.12835
Cl         0.13287       11.32444        2.51472
C         -0.49884        9.55253        4.45476
C         -0.68576        8.26278        4.98247
C         -1.12321        8.09856        6.40822
C         -0.44562        7.17354        4.13427
C         -0.57541        5.73717        4.46266
O         -0.94292        5.35335        5.55976
S         -0.65592        2.50979        4.65250
H          0.34792        1.07396       -0.32945
H          0.68790       -0.64106       -0.37281
H          1.94040        0.46769        0.21818
H          0.41019       -2.04105        1.52763
H         -0.88911       -0.40763        5.29057
H          0.47294        8.77837        1.27342
H         -0.67355       10.42718        5.07964
H         -2.08948        7.58722        6.45611
H         -0.37516        7.53623        6.97570
H         -1.24302        9.06904        6.90260
