35

O          1.01411        0.01607        0.09769
P          2.56246        0.01607        0.09769
O          2.69911        1.31265        1.11414
C          2.65356        2.64652        0.59320
C          3.86472        2.96848       -0.29679
Cl         3.71979        2.33303       -1.95974
C          1.32232        3.02779       -0.07041
Cl         0.01971        3.20125        1.13478
O          2.60858       -1.18738        1.23027
C          1.58160       -2.18562        1.42814
C          0.80563       -1.95228        2.73833
Cl        -0.13489       -0.45039        2.82847
C          0.63867       -2.59371        0.27321
Cl         1.53523       -3.05276       -1.19737
O          4.29246        0.01607        0.09769
C          5.21795       -0.98786        0.50309
C          5.60407       -0.87123        1.98948
Cl         4.73334       -1.93100        3.12158
C          4.98893       -2.40559       -0.01351
Cl         5.01639       -2.42724       -1.80001
H          2.77492        3.28253        1.47955
H          3.97850        4.05264       -0.39478
H          4.78743        2.56588        0.13130
H          1.40577        3.99955       -0.56739
H          0.98881        2.29734       -0.81027
H          2.16155       -3.09671        1.62781
H          0.09356       -2.76828        2.90178
H          1.49653       -1.93417        3.58485
H          0.06852       -3.48217        0.56692
H         -0.10840       -1.85112       -0.00985
H          6.13338       -0.65276       -0.00344
H          6.65580       -1.15597        2.10245
H          5.49511        0.15918        2.34251
H          5.79327       -3.07083        0.32155
H          4.04694       -2.84247        0.29545
