38

C          0.59175        0.68211       -0.22335
N          0.04442        1.20632        1.01580
C         -1.41160        1.11146        1.02581
C          0.66606        0.73628        2.26047
C          0.57089       -0.73948        2.69280
C          1.33639       -1.84780        1.91176
C          2.87361       -1.83427        2.06014
C          3.60490       -2.94192        2.53010
C          5.00705       -2.95695        2.51721
C          5.71016       -1.84403        2.07227
Cl         7.42890       -1.86327        2.03827
C          5.02200       -0.72213        1.63818
C          3.62261       -0.72903        1.61603
C          0.68665       -3.21608        2.22272
C          0.84418       -4.28609        1.34046
C          0.27972       -5.52011        1.65428
C         -0.45618       -5.65553        2.82750
C         -0.57671       -4.55048        3.64634
N         -0.01203       -3.35318        3.38323
H          0.26962        1.30425       -1.06635
H          0.26214       -0.33893       -0.43356
H          1.68318        0.71686       -0.23227
H         -1.76242        0.07460        1.03741
H         -1.83017        1.63472        1.89216
H         -1.83096        1.60116        0.13877
H          1.70041        1.08388        2.29941
H          0.19464        1.31368        3.07012
H          0.88837       -0.78709        3.74481
H         -0.50062       -0.98235        2.70315
H          1.14545       -1.70551        0.84451
H          3.10466       -3.83684        2.89565
H          5.53826       -3.84548        2.84622
H          5.55907        0.15813        1.29302
H          3.14160        0.15275        1.21459
H          1.42663       -4.17228        0.42921
H          0.41260       -6.37033        0.99309
H         -0.91953       -6.59769        3.09407
H         -1.15041       -4.59733        4.56991
