48

C          0.46083       -0.13144       -0.05566
C          0.06132       -1.14925        0.97530
C         -0.94906       -0.64151        1.97468
C          0.56319       -2.40428        1.13893
C          1.63828       -3.17487        0.39262
N          2.85954       -3.25119        1.21686
C          3.96077       -4.14992        0.76652
C          5.50807       -3.58416        0.82487
C          5.83357       -2.26261        1.73443
C          7.16702       -2.53912        2.44107
C          5.86200       -0.79217        1.13926
C          6.22772        0.34001        1.88896
C          5.70705        1.60735        1.56746
O          5.64285        2.57346        2.53329
C          5.06111        1.86232        0.37014
C          4.75990        0.78685       -0.43350
C          4.99443       -0.49524        0.08772
C          3.90728       -1.48477       -0.05330
C          3.44117       -1.93417        1.42711
C          4.55283       -2.22375        2.54920
C          4.51507       -1.44291        3.86654
H          0.28884        0.89155        0.30333
H         -0.10293       -0.25903       -0.98268
H          1.51810       -0.15336       -0.27984
H         -1.95507       -0.97103        1.70288
H         -0.71223       -0.99160        2.98511
H         -0.95286        0.45392        2.02586
H          0.15999       -2.98489        1.96695
H          1.25505       -4.18815        0.22461
H          1.80443       -2.75555       -0.60491
H          3.92085       -5.01799        1.43968
H          3.77352       -4.54559       -0.23814
H          6.06855       -4.42900        1.25265
H          5.90265       -3.45632       -0.18879
H          7.95659       -2.66699        1.68682
H          7.49735       -1.73679        3.10440
H          7.12950       -3.45536        3.03772
H          6.73902        0.24640        2.84086
H          5.08464        2.18812        3.23695
H          4.66379        2.84541        0.13815
H          4.11820        0.92526       -1.30107
H          3.08428       -1.06698       -0.62369
H          4.25733       -2.27943       -0.71902
H          2.75250       -1.18818        1.83724
H          4.39165       -3.23755        2.95386
H          5.34250       -0.75269        4.01590
H          3.57061       -0.91876        4.01902
H          4.61967       -2.15638        4.69866
