31

C          1.32582        0.13253        0.09767
C          0.45166        1.04621        0.95865
C          0.77660        2.50955        0.65904
C         -1.04761        0.78510        0.74830
O         -1.41258       -0.52736        1.20627
C         -1.55589       -1.47332        0.24985
O         -1.39444       -1.36149       -0.95149
C         -1.87758       -2.74096        0.91585
C         -0.88354       -3.71744        1.01674
C         -1.17916       -4.95721        1.58641
N         -0.13070       -5.87503        1.79514
C         -2.46868       -5.15794        2.12879
Cl        -2.83965       -6.67723        2.89350
C         -3.46599       -4.15777        2.06358
N         -4.80026       -4.41299        2.43700
C         -3.16698       -2.96151        1.40709
H          1.08031        0.23433       -0.96489
H          1.20110       -0.91711        0.38006
H          2.38611        0.37759        0.22265
H          0.69802        0.84043        2.00808
H          0.54528        2.76279       -0.38132
H          0.19927        3.17699        1.30735
H          1.83849        2.71654        0.82959
H         -1.62977        1.48988        1.35315
H         -1.34299        0.95055       -0.29495
H          0.11561       -3.50690        0.64362
H          0.59611       -5.84938        1.08660
H         -0.47009       -6.81925        1.97315
H         -4.87910       -5.17554        3.10840
H         -5.32769       -3.59115        2.71334
H         -3.93150       -2.20058        1.27439
