15

C          1.08395        0.02545       -0.09054
C          0.39749       -0.82260       -0.87634
C         -1.10331       -0.87152       -0.92216
C         -1.65948       -0.50191       -2.27964
O         -2.60192       -1.04260       -2.83756
O         -1.08929        0.59002       -2.82726
C          1.17658       -1.75334       -1.72272
O          2.38849       -1.80071       -1.82940
O          0.38761       -2.60708       -2.39218
H          0.57912        0.73682        0.55490
H          2.17144        0.03790       -0.07686
H         -1.44640       -1.88138       -0.66890
H         -1.55045       -0.18842       -0.19051
H         -1.58194        0.71916       -3.66484
H          1.01853       -3.16198       -2.89729
