37

C          0.53994        0.46604       -0.32416
C          0.20081        1.07278        1.03572
C          0.74399        2.50938        1.09113
O         -1.22660        1.13614        1.12433
C          0.70814        0.31717        2.28587
C          0.51964       -1.20409        2.39055
C          1.28915       -2.14288        1.44413
C          2.80825       -2.18880        1.46902
C          3.44894       -3.36426        1.30294
C          4.94436       -3.51625        1.24863
C          5.69487       -2.26452        1.70644
C          7.13223       -2.32447        1.25290
O          8.08310       -2.23306        2.02056
C          5.04378       -1.01284        1.13369
C          3.59341       -0.90787        1.59717
H          0.26235        1.15298       -1.13319
H         -0.04603       -0.43789       -0.51372
H          1.60390        0.25087       -0.43806
H          0.35444        3.11400        0.26469
H          0.43431        3.01009        2.01516
H          1.83875        2.52258        1.03901
H         -1.55052        1.65044        0.36462
H          1.74833        0.57700        2.48554
H          0.16106        0.73348        3.14619
H          0.77474       -1.49393        3.41936
H         -0.55130       -1.41986        2.28041
H          0.91927       -3.15311        1.67624
H          0.98013       -1.97482        0.41160
H          2.87641       -4.28040        1.16699
H          5.22017       -3.77913        0.21892
H          5.24398       -4.36497        1.87454
H          5.68604       -2.21207        2.80282
H          7.29418       -2.42562        0.16492
H          5.59256       -0.11333        1.43854
H          5.07690       -1.03489        0.03549
H          3.58121       -0.59921        2.64935
H          3.13541       -0.11584        1.00313
