18

C          0.88006       -0.04711        0.06538
C          0.35630        0.13720        1.44740
C         -0.49077        1.32723        1.78446
C         -1.11204       -0.07434        1.86352
C         -2.22475       -0.34928        0.91483
O         -3.40394       -0.36379        1.23664
O         -1.86981       -0.56910       -0.36697
C         -1.30774       -0.65619        3.21983
O         -1.67083       -0.02692        4.20133
O         -0.98047       -1.96215        3.29722
H          0.35135        0.56225       -0.67355
H          0.81695       -1.09920       -0.22935
H          1.93509        0.24462        0.02827
H          1.10874       -0.16434        2.17183
H         -0.29414        1.85122        2.71421
H         -0.81391        1.98257        0.98240
H         -2.72552       -0.70521       -0.82432
H         -1.14960       -2.18761        4.23597
