32

C          0.78283        0.26794       -0.44430
C          0.31296        1.01341        0.81810
C          0.53454        2.52274        0.55409
C         -1.21460        0.81740        0.95139
C          1.03995        0.56672        2.15488
C          0.67928       -0.85194        2.69974
C          1.09331       -2.09992        1.92115
C          2.57400       -2.34688        1.90439
O          3.26184       -2.67388        2.85639
O          3.12761       -2.13119        0.69729
C          2.57238        0.77816        2.18855
C          2.99488        2.21459        2.34561
O          2.64855        2.98538        3.22500
O          3.83887        2.61251        1.37384
H          0.44898        0.78879       -1.35033
H          0.36406       -0.73724       -0.51292
H          1.87144        0.19688       -0.50438
H         -0.15192        2.89695       -0.21514
H          0.36257        3.11901        1.45633
H          1.54338        2.72490        0.18401
H         -1.48612       -0.23841        1.04538
H         -1.60508        1.35173        1.82489
H         -1.74106        1.19997        0.06870
H          0.63352        1.24066        2.92632
H          1.10353       -0.93328        3.71068
H         -0.40505       -0.90189        2.85458
H          0.64888       -2.98116        2.40247
H          0.69660       -2.11609        0.90704
H          4.08523       -2.28855        0.83791
H          3.01028        0.26216        3.05276
H          3.05378        0.36084        1.30219
H          4.00081        3.55912        1.56856
