15

C          0.83763        0.04602        0.04870
C          0.45575        0.77194       -1.22915
O          1.00981        0.17496       -2.39844
C          2.43104        0.18400       -2.50158
C          3.01293        1.58346       -2.59451
H          0.65634       -1.02928       -0.04557
H          0.26138        0.43111        0.89521
H          1.89904        0.17976        0.27838
H         -0.63241        0.72491       -1.34486
H          0.71818        1.83324       -1.17690
H          2.88086       -0.37954       -1.67815
H          2.67699       -0.35754       -3.42132
H          2.90969        2.11934       -1.64615
H          4.07826        1.54016       -2.83972
H          2.49510        2.17017       -3.35979
