74

C          1.06243       -0.40371        0.40146
C          0.85019        1.07090        0.70652
C          1.30425        1.97770       -0.43952
C          0.57285        1.72488       -1.76200
C         -0.94455        1.91412       -1.66909
C         -1.34990        3.34213       -1.29440
C         -0.88622        4.37825       -2.32217
C         -1.51472        4.16153       -3.70265
C         -3.04034        4.29850       -3.68031
C         -3.49633        5.66436       -3.15406
C         -2.92557        6.83131       -3.96959
C         -3.31278        6.76595       -5.44719
C         -4.82346        6.72019       -5.64863
C         -5.51232        8.01860       -5.21506
C         -5.33372        9.14761       -6.23213
C         -5.93498        8.84956       -7.60514
O         -7.36473        8.83103       -7.52102
C         -7.96606        7.67165       -7.17475
O         -7.39893        6.59215       -7.03696
C         -9.46500        7.81894       -7.04940
C         -9.93400        9.16283       -6.45076
C         -9.69014       10.43017       -7.26207
C        -10.10276        7.45099       -8.39640
C         -9.75949        6.03134       -8.89663
C        -10.08925        4.88204       -7.93754
C        -11.57551        4.75612       -7.65345
H          0.45331       -0.73315       -0.44594
H          0.78031       -1.01391        1.26371
H          2.11292       -0.60176        0.16691
H         -0.20473        1.24813        0.94448
H          1.41401        1.33445        1.60819
H          1.17796        3.02371       -0.13525
H          2.37996        1.84422       -0.60269
H          0.99171        2.38654       -2.52868
H          0.78359        0.71226       -2.12119
H         -1.39623        1.63068       -2.62627
H         -1.37334        1.21847       -0.94046
H         -2.43840        3.38283       -1.17459
H         -0.94914        3.60914       -0.31107
H         -1.11892        5.38022       -1.94578
H          0.20379        4.37024       -2.41851
H         -1.07873        4.87686       -4.40877
H         -1.24697        3.17887       -4.10412
H         -3.42975        4.12420       -4.68983
H         -3.48926        3.50909       -3.06778
H         -4.59096        5.69733       -3.13882
H         -3.20930        5.78877       -2.10485
H         -3.25924        7.77392       -3.52537
H         -1.83347        6.85872       -3.89405
H         -2.88187        7.62123       -5.97780
H         -2.86890        5.88054       -5.91739
H         -5.00813        6.48684       -6.69934
H         -5.26957        5.88081       -5.10497
H         -6.57534        7.83195       -5.03492
H         -5.13803        8.35637       -4.24402
H         -5.81504       10.04337       -5.82139
H         -4.26941        9.37860       -6.34487
H         -5.67607        9.66735       -8.28555
H         -5.55097        7.93719       -8.07133
H         -9.77039        7.07708       -6.29900
H        -11.01347        9.08954       -6.26761
H         -9.46496        9.29528       -5.46656
H         -9.97749       10.31346       -8.30908
H        -10.27314       11.25561       -6.84003
H         -8.64490       10.74921       -7.21730
H        -11.19071        7.55789       -8.32893
H         -9.76429        8.15630       -9.16551
H        -10.28072        5.86384       -9.84642
H         -8.69091        5.97920       -9.14038
H         -9.73613        3.94448       -8.38410
H         -9.54565        4.98503       -6.99238
H        -12.13712        4.62441       -8.58325
H        -11.76469        3.88677       -7.01591
H        -11.96029        5.63963       -7.13620
