47

C          0.74625        0.01194       -0.13041
C          0.39358       -0.01791        1.38074
C          1.00946        1.27263        1.98858
C         -1.15442       -0.01039        1.48936
C         -1.90923        1.13941        1.20729
C         -3.31058        1.10600        1.22466
C         -3.99760       -0.07353        1.51312
O         -5.35648        0.00475        1.41355
C         -6.12450       -1.20579        1.41911
C         -6.21146       -1.83081        0.02358
O         -5.01162       -2.50263       -0.34991
C         -3.26814       -1.20719        1.83942
C         -1.87200       -1.17823        1.81102
C          1.00109       -1.25752        2.09028
C          1.27647       -2.44967        1.39676
C          1.64412       -3.61303        2.07937
C          1.77195       -3.61884        3.46662
O          2.12201       -4.82608        3.99555
C          2.59862       -4.89078        5.34273
C          4.10601       -4.64359        5.39171
O          4.42442       -3.26443        5.22644
C          1.52511       -2.44524        4.16988
C          1.14198       -1.28197        3.49091
H          0.42479        0.94940       -0.60120
H          0.25236       -0.79311       -0.68717
H          1.82761       -0.07731       -0.28948
H          0.78120        2.16110        1.38819
H          0.63448        1.47675        2.99768
H          2.10302        1.20178        2.04140
H         -1.42565        2.07641        0.94300
H         -3.86952        2.00741        0.98471
H         -5.78192       -1.91461        2.17926
H         -7.13652       -0.90820        1.71574
H         -7.00998       -2.57815        0.00553
H         -6.42327       -1.07257       -0.73656
H         -4.33192       -1.81511       -0.47708
H         -3.73749       -2.15257        2.09008
H         -1.36563       -2.11326        2.03821
H          1.15325       -2.52108        0.31964
H          1.81258       -4.53021        1.51939
H          2.04123       -4.24065        6.02290
H          2.40966       -5.91777        5.67527
H          4.50247       -4.95246        6.36268
H          4.62159       -5.20492        4.60573
H          4.16769       -3.02463        4.31667
H          1.59476       -2.39139        5.25085
H          0.90680       -0.40507        4.08998
