24

C          0.98054        0.04588       -0.27382
C          0.61500       -0.30770        1.16241
S          1.35359        0.88646        2.32421
C          2.95695        0.25025        2.73385
S          3.51344       -1.28921        2.38646
S          3.76186        1.38622        3.82353
C          5.52961        1.42084        3.41222
C          6.31888        0.18752        3.82796
C          5.87100        1.84936        2.00288
O          6.87228        2.48283        1.69438
O          5.04792        1.42012        1.03206
C         -0.89284       -0.31163        1.35033
O         -1.54431       -1.22270        1.84049
O         -1.51748        0.81221        0.94498
H          0.64943        1.05446       -0.54754
H          0.49629       -0.64774       -0.97069
H          2.06061       -0.01570       -0.44119
H          0.92922       -1.33238        1.37642
H          5.89305        2.24455        4.04118
H          6.26149       -0.61672        3.09045
H          7.38338        0.43860        3.90928
H          6.00057       -0.19401        4.80376
H          5.48249        1.73374        0.20888
H         -2.45694        0.66144        1.18223
