21

C          1.55748       -0.00607        1.06781
C          0.62069        1.17977        0.88508
C          1.15235        2.22751       -0.09115
O          0.50629        2.22387       -1.35900
C          0.91564        1.30102       -2.36865
C          2.41099        1.00539       -2.42401
C          0.06016        0.04004       -2.33634
H          1.65750       -0.59621        0.15528
H          1.17470       -0.66988        1.84914
H          2.55711        0.32580        1.36833
H         -0.37517        0.83235        0.58823
H          0.51664        1.65157        1.87012
H          0.91051        3.20894        0.33405
H          2.24374        2.21600       -0.18304
H          0.67120        1.80395       -3.31202
H          2.75199        0.43722       -1.55553
H          2.65844        0.42247       -3.31763
H          2.98627        1.93670       -2.45192
H         -0.99402        0.29925       -2.48550
H          0.35542       -0.65938       -3.12527
H          0.11575       -0.47948       -1.37971
