16

O          1.18898        0.60375        0.46739
C          2.26273        0.18620        0.04968
C          2.91908        0.76871       -1.13661
C          2.45028        1.99669       -1.62297
C          3.09381        2.59332       -2.70209
O          2.68136        3.79324       -3.19974
C          4.19083        1.98617       -3.30329
C          4.65346        0.76035       -2.82328
C          4.01247        0.14615       -1.74807
O          4.51860       -1.06221       -1.36095
H          2.77910       -0.64710        0.55212
H          1.60119        2.47805       -1.14503
H          1.92746        4.11125       -2.67472
H          4.68530        2.46625       -4.14368
H          5.50839        0.28254       -3.29499
H          3.79681       -1.64454       -1.07072
