15

O          0.93798        0.15684        0.02835
C          2.15310        0.08196        0.00390
O          2.86154       -0.85043        0.67415
C          3.00773        1.04805       -0.72386
C          2.64209        2.39928       -0.71600
C          3.42271        3.33632       -1.39735
C          4.55710        2.91797       -2.09273
Cl         5.51809        4.07117       -2.93221
C          4.91455        1.56897       -2.12035
C          4.13677        0.62807       -1.43962
H          3.82206       -0.68606        0.71420
H          1.74946        2.72229       -0.18246
H          3.13751        4.38552       -1.38697
H          5.78868        1.24532       -2.68062
H          4.40162       -0.42485       -1.50153
