37

C          1.00493        0.04042        0.13331
C          0.54671        0.22865       -1.30877
N          1.09238       -0.76925       -2.22819
C          0.32464       -0.93058       -3.46348
C          0.21052        0.25047       -4.42103
C          2.56017       -0.81946       -2.35073
C          3.28556        0.48309       -2.67568
O          4.16384        0.96895       -1.97337
O          2.92824        0.96367       -3.89357
C          3.52525        2.21024       -4.27333
N          2.88451        3.34190       -3.61584
N          2.00939        3.18602       -2.58902
C          1.79718        4.43349       -2.16061
C          2.46502        5.38803       -2.94137
C          2.63154        6.75746       -2.99489
O          2.08368        7.61148       -2.08440
N          3.36779        7.33192       -3.95571
C          3.94204        6.50290       -4.85442
N          3.89449        5.15483       -4.90068
C          3.13386        4.65849       -3.90702
H          0.76925       -0.96705        0.49241
H          0.48717        0.75408        0.78357
H          2.07915        0.21049        0.24903
H         -0.54818        0.15003       -1.29995
H          0.77554        1.24376       -1.63261
H          0.70307       -1.79802       -4.01834
H         -0.69635       -1.21485       -3.17694
H          1.05950        0.28677       -5.10825
H         -0.68240        0.13780       -5.04516
H          0.12469        1.20943       -3.90316
H          2.97301       -1.18077       -1.40049
H          2.86560       -1.56991       -3.08955
H          4.59945        2.23785       -4.06171
H          3.36781        2.33286       -5.35019
H          1.15996        4.59265       -1.30036
H          2.43810        8.46222       -2.39797
H          4.51824        6.98335       -5.64041
