30

C          0.71965        0.03252       -0.12526
C          0.46636       -1.22942       -0.92115
S          1.11553       -2.74104       -0.21454
O          0.78663       -2.68417        1.19871
O          0.56183       -3.78895       -1.05322
C          2.92925       -2.75806       -0.38398
C          3.30738       -2.44884       -1.83982
C          3.57509       -1.72859        0.54730
O          3.31818       -1.87593        1.93391
S          3.47261       -4.44406        0.06537
O          2.94667       -4.77316        1.37730
O          3.21198       -5.33572       -1.05124
C          5.25179       -4.44280        0.27389
C          6.05271       -4.33683       -1.00745
H          0.58250       -0.11835        0.94928
H          0.02791        0.81910       -0.44439
H          1.72474        0.41984       -0.29730
H         -0.61833       -1.39054       -0.96261
H          0.80405       -1.13482       -1.95483
H          2.90232       -1.48912       -2.17093
H          4.38667       -2.37132       -1.97170
H          2.94339       -3.21620       -2.53025
H          4.66376       -1.74678        0.43682
H          3.29263       -0.71359        0.27169
H          2.40215       -2.20248        2.09505
H          5.53476       -3.67532        0.99685
H          5.47809       -5.41073        0.73795
H          6.10231       -3.30684       -1.36392
H          7.08509       -4.65636       -0.83178
H          5.64216       -4.96076       -1.80691
