43

C         -4.30815        0.23275        0.48664
C         -3.86302       -1.21775        0.54915
C         -2.52420       -1.32404        1.27987
N         -1.45176       -0.50680        0.69487
C         -0.80144       -1.19307       -0.42996
C          0.29746       -0.35263       -1.10563
C         -0.37021        0.92939       -1.61403
C         -0.79455        1.71623       -0.37063
C          0.45984        2.07800        0.46419
N          1.68475        1.42482       -0.03308
C          2.84472        1.80485        0.77540
C          4.12041        1.15405        0.24775
C          3.97570       -0.36069        0.22810
C          2.75217       -0.75806       -0.59176
C          1.47398       -0.03539       -0.12074
C         -1.84448        0.89775        0.44603
C         -3.23737        1.06227       -0.20544
H         -4.47976        0.61424        1.50184
H         -5.25662        0.31876       -0.05378
H         -4.62044       -1.81574        1.06692
H         -3.77964       -1.62369       -0.46768
H         -2.22295       -2.37671        1.33427
H         -2.66630       -1.00753        2.32186
H         -1.54186       -1.47570       -1.18823
H         -0.34755       -2.12510       -0.06936
H          0.66761       -0.91073       -1.97528
H         -1.22519        0.69410       -2.25688
H          0.32236        1.51314       -2.23322
H         -1.25683        2.65644       -0.69804
H          0.60034        3.16447        0.39069
H          0.30137        1.85906        1.52780
H          2.97785        2.89311        0.73564
H          2.69851        1.53147        1.82798
H          4.33298        1.51814       -0.76617
H          4.97179        1.44115        0.87459
H          4.87624       -0.81877       -0.19502
H          3.87397       -0.73434        1.25445
H          2.94658       -0.53012       -1.64776
H          2.60886       -1.84314       -0.51955
H          1.24575       -0.41958        0.88387
H         -1.92263        1.37009        1.43660
H         -3.20803        0.78376       -1.26510
H         -3.53245        2.11803       -0.16448
