19

C          1.06332       -0.00741        0.16005
C          0.33888       -0.23590        1.46040
O         -0.58064        0.49545        1.82139
C          0.73863       -1.39517        2.30535
C          2.00230       -1.98422        2.20909
C          2.32611       -3.07843        3.02018
C          1.41411       -3.57433        3.95587
N          1.69661       -4.75006        4.65891
C          0.13498       -3.01618        4.00445
C         -0.19439       -1.91525        3.20809
H          0.56276        0.79381       -0.39273
H          1.02594       -0.91234       -0.45285
H          2.09636        0.29672        0.34257
H          2.75183       -1.61427        1.51638
H          3.30379       -3.54256        2.91493
H          1.14092       -4.86908        5.50065
H          2.68579       -4.90195        4.82962
H         -0.62066       -3.43176        4.66617
H         -1.18998       -1.48136        3.27928
