56

O          1.49305       -0.32795       -1.09799
C          2.29968        0.01743       -0.24595
N          1.89645        0.51187        0.95691
C          2.74879        0.84783        2.07788
C          3.33219        2.25634        1.96092
C          3.73200        2.83391        3.32102
C          4.90242        2.12244        4.00733
C          6.29724        2.47941        3.47088
C          6.65056        3.97156        3.50747
N          6.33823        4.57229        4.78955
C          7.19263        4.82953        5.81536
O          6.76883        5.08892        6.93429
O          8.49674        4.80090        5.45718
C          9.45031        5.07214        6.49697
C          9.83552        6.55268        6.54358
C          8.77279        7.49792        7.12031
C          8.44373        7.26919        8.59334
O          9.58485        7.52256        9.40410
O          3.64565       -0.05276       -0.35484
C          4.16953       -0.68221       -1.52967
C          5.23997        0.20211       -2.16436
C          6.25572        0.80520       -1.19190
C          6.89608       -0.19968       -0.24363
O          7.89272        0.45236        0.53514
H          0.89251        0.56704        1.06428
H          2.12168        0.76147        2.97163
H          3.54949        0.10459        2.15561
H          4.18514        2.25877        1.27319
H          2.58024        2.92416        1.52114
H          3.94525        3.90120        3.20321
H          2.86111        2.78123        3.98708
H          4.86875        2.36540        5.07695
H          4.77099        1.03583        3.95468
H          7.03331        1.93262        4.07456
H          6.40413        2.11244        2.44380
H          7.71258        4.10078        3.27529
H          6.08096        4.51750        2.74920
H          5.36810        4.63622        5.06529
H          9.11426        4.69213        7.46763
H         10.34415        4.49340        6.23734
H         10.76000        6.65980        7.12274
H         10.05831        6.88834        5.52304
H          9.15503        8.52126        7.01278
H          7.85652        7.44527        6.52391
H          7.65910        7.96614        8.90501
H          8.08501        6.25783        8.79958
H         10.15445        6.73706        9.35982
H          4.61011       -1.63453       -1.21600
H          3.40037       -0.91048       -2.27574
H          5.76378       -0.37641       -2.93471
H          4.74554        1.03462       -2.68077
H          7.04013        1.30863       -1.77157
H          5.78266        1.60105       -0.60338
H          6.16227       -0.61739        0.45140
H          7.36429       -1.02542       -0.78830
H          8.57822        0.76989       -0.07745
