13

C          1.00910        0.03145        0.05745
C          0.50020       -1.23879        0.69357
O         -0.20713       -1.16050        1.70137
N          0.87499       -2.43099        0.08238
C          1.70942       -2.55547       -1.10868
N          0.39131       -3.60120        0.68945
O          0.74158       -4.64249        0.12315
H          0.64722        0.89259        0.62813
H          0.63153        0.12116       -0.96449
H          2.10195        0.05158        0.07293
H          2.60488       -3.13480       -0.86088
H          1.14128       -3.06554       -1.89348
H          2.03021       -1.58877       -1.49853
