24

C          0.96632       -0.07359       -0.18511
C          0.53403       -0.37944        1.24623
C          1.09783        0.57771        2.32282
O          0.61106        1.90387        2.01528
C          0.48180        0.27969        3.71222
C          0.69454       -1.10185        4.30895
C          2.64149        0.68218        2.33710
C          3.43379       -0.61025        2.45713
H          0.65618        0.92815       -0.49603
H          0.50231       -0.78883       -0.87252
H          2.04989       -0.15695       -0.30628
H         -0.56258       -0.32885        1.26763
H          0.80573       -1.41632        1.46847
H          1.05325        2.21709        1.20928
H          0.83335        1.03162        4.43162
H         -0.60253        0.44958        3.64730
H          1.71651       -1.23493        4.66646
H          0.04190       -1.22771        5.18007
H          0.45499       -1.90255        3.60556
H          2.96946        1.18694        1.41830
H          2.94914        1.36384        3.14126
H          3.08451       -1.37970        1.76462
H          4.48700       -0.41605        2.22573
H          3.40830       -1.01047        3.47137
