26

C          1.03122       -0.14919       -0.19155
N          0.39385        0.97553       -0.82877
C         -0.40852        0.94422       -1.93507
O         -0.91400        1.97496       -2.36838
O         -0.56006       -0.32808       -2.46371
C         -1.39694       -0.47625       -3.58972
C         -1.12286        0.23646       -4.75968
C         -1.92138        0.04138       -5.88135
C         -2.97156       -0.87791       -5.83878
C         -3.23815       -1.62141       -4.67575
C         -4.28421       -2.55864       -4.64307
C         -4.54347       -3.30400       -3.49230
C         -3.76198       -3.12146       -2.35708
C         -2.72040       -2.19222       -2.37165
C         -2.43907       -1.42782       -3.52445
H          0.73566       -1.10125       -0.63639
H          0.75413       -0.13959        0.86570
H          2.11309       -0.02227       -0.27835
H          0.52346        1.90192       -0.44419
H         -0.30193        0.94638       -4.79792
H         -1.72733        0.60369       -6.79092
H         -3.58226       -1.01495       -6.72891
H         -4.90681       -2.71732       -5.52098
H         -5.35555       -4.02624       -3.48463
H         -3.96142       -3.69987       -1.45896
H         -2.12370       -2.06460       -1.47142
