54

C          1.16587        0.00020        0.59574
C          0.93085        1.43025        0.13383
C          1.38632        1.67224       -1.30683
C          0.68967        0.79144       -2.34810
C         -0.82680        0.99286       -2.42542
C         -1.24570        2.39874       -2.86673
C         -0.66888        2.82261       -4.22281
C         -1.01024        1.87055       -5.37641
C         -2.51050        1.65955       -5.59613
C         -3.28963        2.95603       -5.80661
C         -2.98348        3.64356       -7.14162
C         -3.85291        3.14835       -8.29674
C         -5.35918        3.37730       -8.13821
C         -5.80567        4.78069       -8.50757
O         -6.25449        4.98345       -9.64068
N         -5.66870        5.81972       -7.60061
C         -5.40154        5.70118       -6.17690
C         -6.04026        7.15269       -8.08431
C         -5.16073        7.71770       -9.19581
O         -5.43003        8.69633       -9.87337
O         -3.95395        7.12520       -9.32319
H          0.55635       -0.71130        0.03044
H          0.89854       -0.10559        1.65102
H          2.21800       -0.27807        0.47866
H         -0.12867        1.68372        0.24967
H          1.48329        2.10994        0.79279
H          1.23686        2.73033       -1.55248
H          2.46723        1.49923       -1.37350
H          1.14377        0.98219       -3.32703
H          0.89569       -0.26454       -2.14310
H         -1.24279        0.25107       -3.11699
H         -1.28919        0.77195       -1.45708
H         -2.34096        2.44535       -2.89585
H         -0.94570        3.13269       -2.10994
H         -1.01731        3.83542       -4.45540
H          0.42073        2.91301       -4.15245
H         -0.54824        2.25237       -6.29292
H         -0.54480        0.89330       -5.20464
H         -2.66135        0.99057       -6.45117
H         -2.93586        1.13684       -4.73088
H         -4.35099        2.71589       -5.71231
H         -3.08956        3.65946       -4.99191
H         -3.10055        4.72469       -7.03813
H         -1.93135        3.50511       -7.41256
H         -3.50600        3.63205       -9.21864
H         -3.67394        2.07375       -8.42633
H         -5.86389        2.70793       -8.84898
H         -5.75635        3.08490       -7.16614
H         -4.42953        6.15390       -5.95994
H         -6.17193        6.24272       -5.61966
H         -5.41831        4.67031       -5.83484
H         -7.07468        7.10867       -8.43958
H         -5.97661        7.86085       -7.25038
H         -3.55729        7.58399      -10.09205
