63

C          0.94611       -0.20587        0.31843
C          0.39815        1.17796        0.64160
C          0.54094        2.18461       -0.50251
C         -0.30564        1.88799       -1.73306
C         -1.78236        2.23039       -1.60757
O         -2.28616        3.26515       -2.00725
O         -2.47732        1.16336       -1.13279
C         -3.85049        0.93286       -1.61963
C         -3.68290        0.58032       -3.09874
C         -2.96250       -0.77468       -3.00512
C         -3.83799       -1.46398       -1.97991
C         -3.50675       -2.71081       -1.21283
C         -2.48502       -3.63544       -1.83424
C         -2.09963       -4.61099       -0.73155
C         -3.29903       -5.44005       -0.34373
C         -3.11718       -6.77181       -0.29614
C         -4.22349       -7.70658       -0.02380
O         -3.98571       -8.91021        0.04269
C         -5.60012       -7.13720        0.20084
C         -5.76588       -5.77572       -0.48175
C         -4.66601       -4.74478       -0.08289
C         -4.79692       -4.44235        1.42608
C         -4.86599       -3.41311       -0.93943
C         -5.97738       -2.36550       -0.44572
C         -5.83924       -0.82982       -0.87692
C         -4.35115       -0.39958       -0.95871
C         -3.83158       -0.39450        0.51054
H          0.41465       -0.67195       -0.51561
H          0.83768       -0.86301        1.18787
H          2.01107       -0.15866        0.06727
H         -0.64968        1.09740        0.94636
H          0.94961        1.56461        1.50769
H          0.29503        3.18402       -0.12603
H          1.59626        2.21476       -0.80571
H          0.07324        2.48749       -2.57150
H         -0.19654        0.84994       -2.06486
H         -4.48030        1.79920       -1.40044
H         -4.66311        0.48484       -3.58157
H         -3.08839        1.29875       -3.66841
H         -2.97470       -1.28714       -3.97315
H         -1.92492       -0.68563       -2.67687
H         -4.67124       -1.74946       -2.64850
H         -3.06925       -2.43535       -0.25253
H         -2.88680       -4.15458       -2.71234
H         -1.59579       -3.08000       -2.15025
H         -1.26691       -5.22919       -1.08610
H         -1.72592       -4.07609        0.15246
H         -2.15043       -7.23535       -0.46648
H         -6.32587       -7.84182       -0.21903
H         -5.77011       -7.07200        1.27977
H         -5.72638       -5.93869       -1.56892
H         -6.76529       -5.38325       -0.26253
H         -4.20357       -3.57100        1.71835
H         -5.84261       -4.24686        1.69661
H         -4.47007       -5.27963        2.05172
H         -5.22767       -3.74637       -1.92598
H         -6.03259       -2.36606        0.64548
H         -6.95921       -2.72180       -0.78469
H         -6.34082       -0.68289       -1.84262
H         -6.38899       -0.20600       -0.16079
H         -4.19585       -1.23446        1.10841
H         -2.73920       -0.41823        0.57552
H         -4.18171        0.50855        1.02573
