57

C          1.10687        0.00131       -0.08785
C          0.59852       -0.36880        1.31306
C          1.15350        0.65027        2.31652
C         -0.95401       -0.46332        1.35332
N         -1.37890       -1.46883        0.33493
C         -2.37015       -2.42118        0.58416
C         -2.02742       -3.74651        0.27937
C         -2.92103       -4.79511        0.48877
C         -4.19733       -4.54257        1.00232
C         -5.13073       -5.69393        1.26376
F         -5.64300       -6.21914        0.11763
F         -4.50352       -6.72550        1.89113
F         -6.20095       -5.36703        2.03616
C         -4.58237       -3.21461        1.23349
C         -3.68910       -2.16233        0.99525
Cl        -4.28675       -0.55194        1.18522
C         -1.42334       -0.68533        2.80307
O         -1.78098        0.24369        3.51957
O         -1.32333       -1.97355        3.21609
C         -1.71881       -2.29771        4.57317
C         -1.03561       -1.49494        5.61753
N         -0.47009       -0.90625        6.44581
C         -3.23112       -2.42087        4.74787
C         -4.05695       -1.29749        4.91293
C         -5.43128       -1.44063        5.10485
C         -5.99522       -2.71097        5.18393
C         -5.19729       -3.84851        5.05123
O         -5.88128       -5.03860        5.17772
C         -5.20947       -6.23050        5.28344
C         -5.68055       -7.27604        4.48871
C         -5.03097       -8.50980        4.49335
C         -3.92859       -8.70907        5.32176
C         -3.50516       -7.69016        6.17602
C         -4.16220       -6.45779        6.17700
C         -3.83147       -3.69767        4.77910
H          0.69072        0.95906       -0.41816
H          0.84087       -0.76029       -0.82750
H          2.19905        0.08664       -0.09488
H          1.01810       -1.35091        1.57082
H          0.71556        1.64130        2.15784
H          0.95457        0.34657        3.34888
H          2.24087        0.74089        2.21752
H         -1.38001        0.50010        1.04236
H         -1.61065       -0.98631       -0.53532
H         -1.03504       -3.96599       -0.11174
H         -2.61147       -5.81421        0.25954
H         -5.58306       -2.99819        1.60615
H         -1.31319       -3.30944        4.71169
H         -3.64725       -0.28872        4.90061
H         -6.05880       -0.55870        5.21111
H         -7.06419       -2.81516        5.35542
H         -6.53785       -7.11943        3.83893
H         -5.37771       -9.30636        3.84032
H         -3.40842       -9.66337        5.31037
H         -2.66215       -7.85694        6.84130
H         -3.84154       -5.67993        6.86374
H         -3.21158       -4.57343        4.60626
