19

O         -1.74824       -2.04341       -0.01241
C         -1.34681       -0.73163       -0.00826
C         -2.30909        0.27878       -0.00699
C         -1.90648        1.61132       -0.00195
C         -0.54774        1.93083        0.00205
C          0.43065        0.92269        0.00053
C          1.79896        1.24223        0.00450
C          2.76895        0.23883        0.00257
C          2.38470       -1.09750       -0.00341
C          1.02939       -1.43110       -0.00709
C          0.03167       -0.43479       -0.00507
H         -2.71827       -2.07270       -0.00868
H         -3.36940        0.04707       -0.01008
H         -2.64903        2.40510       -0.00105
H         -0.25501        2.97872        0.00622
H          2.12055        2.28131        0.00915
H          3.82328        0.50198        0.00565
H          3.13567       -1.88279       -0.00517
H          0.74455       -2.48145       -0.01173
