40

C          1.24199        1.00829        0.93072
C          1.03004        2.05784       -0.15018
C          1.89405        1.91207       -1.40875
S          1.42714        0.69610       -2.67902
P          1.00157       -1.09304       -1.70887
O          2.05504       -1.37358       -0.67156
O         -0.49010       -0.96844       -1.08029
C         -1.57673       -0.71762       -1.96106
C         -2.25577        0.57426       -1.55769
O          0.79635       -2.35163       -2.71914
C          0.49393       -3.57486       -2.23686
C         -0.57442       -4.40152       -2.59013
N         -0.59284       -5.52539       -1.86788
N          0.43903       -5.38528       -0.98784
C          0.66750       -6.34676        0.03431
C          1.47846       -6.04903        1.14059
C          1.68021       -7.01187        2.13622
C          1.09526       -8.27176        2.01697
Cl         1.36648       -9.45947        3.23183
C          0.29021       -8.57462        0.92111
C          0.06174       -7.60831       -0.06207
C          1.15061       -4.23148       -1.23275
H          0.62161        0.12705        0.76830
H          0.94468        1.40358        1.90734
H          2.28962        0.70123        0.99925
H         -0.03199        2.13594       -0.39645
H          1.29944        3.02037        0.30422
H          1.86490        2.87773       -1.92794
H          2.93844        1.74074       -1.13182
H         -1.24903       -0.66049       -3.00510
H         -2.27716       -1.55328       -1.87931
H         -1.61195        1.43073       -1.77669
H         -3.19268        0.71279       -2.10317
H         -2.45712        0.58875       -0.48200
H         -1.35384       -4.23201       -3.31989
H          1.93158       -5.07015        1.27647
H          2.29017       -6.77122        3.00377
H         -0.16179       -9.55792        0.82283
H         -0.56937       -7.86041       -0.91280
H          2.04437       -3.98268       -0.67675
