11

N          0.98754        0.02243       -0.05170
C          0.51158        0.38212        1.28691
C          0.99774        1.76298        1.74036
O          0.55702        2.77737        0.84324
H          0.52309        0.60307       -0.74755
H          1.98867        0.19099       -0.12947
H         -0.58348        0.36246        1.27255
H          0.85004       -0.37596        2.00034
H          0.59717        1.99308        2.73235
H          2.09077        1.80061        1.79798
H          0.96741        2.58940       -0.01707
