17

O          1.09880       -0.26765        0.17331
C          2.30769       -0.11140        0.07394
O          3.09628        0.07407        1.16148
C          3.06789       -0.15448       -1.25088
C          3.95269       -1.37943       -1.38177
C          4.94426       -0.96695       -2.45056
C          5.08556        0.53924       -2.28913
N          3.99120        0.99028       -1.42452
H          4.04437        0.10409        0.94280
H          2.33265       -0.12103       -2.06420
H          4.47943       -1.60878       -0.44774
H          3.38751       -2.27122       -1.67056
H          5.90013       -1.48880       -2.34388
H          4.53846       -1.20018       -3.44220
H          6.04954        0.79278       -1.83532
H          5.03392        1.04113       -3.26100
H          4.35034        1.36381       -0.55126
