52

C          1.45436       -0.82977       -1.72863
O          0.68582       -1.79250       -1.00448
C          1.41898       -2.77333       -0.41298
O          2.62005       -2.95654       -0.58101
C          0.56188       -3.62416        0.48603
C          1.06459       -3.54578        1.92781
N          0.41341       -2.46026        2.67163
C         -0.43548       -2.73725        3.83355
C          0.27678       -2.41049        5.14230
C          0.14768       -0.94634        5.46215
O         -0.91813       -0.39593        5.71883
O          1.36109       -0.33231        5.43195
C          1.31031        1.08980        5.55661
C          0.58937       -1.15422        2.25155
C          1.85603       -0.56440        2.25515
C          2.03704        0.74173        1.79793
C          0.96261        1.47403        1.28118
N          1.14535        2.78014        0.79078
N          1.84806        2.74556       -0.24499
C          2.16746        4.05195       -0.66517
C          1.37381        4.72528       -1.61311
Cl        -0.05785        3.99900       -2.25987
C          1.72192        5.99809       -2.07994
C          2.88541        6.60948       -1.60154
N          3.27390        7.93343       -2.10249
O          2.56445        8.44630       -2.97760
O          4.29004        8.45279       -1.62189
C          3.69536        5.96406       -0.66295
C          3.33614        4.69178       -0.20766
Br         4.51107        3.85799        1.03482
C         -0.30650        0.89537        1.28347
C         -0.49075       -0.40102        1.77576
H          0.83586        0.06144       -1.86888
H          1.72028       -1.23079       -2.71022
H          2.35328       -0.53339       -1.17777
H         -0.49176       -3.33151        0.40693
H          0.63490       -4.65018        0.10784
H          0.83324       -4.50058        2.41544
H          2.15508       -3.44183        1.97823
H         -1.39010       -2.20404        3.75331
H         -0.69153       -3.80355        3.84246
H         -0.18627       -2.95432        5.97422
H          1.33140       -2.70789        5.11737
H          0.50638        1.52027        4.95010
H          1.19190        1.36528        6.60792
H          2.25934        1.49407        5.19252
H          2.71190       -1.11123        2.64296
H          3.02778        1.18348        1.83354
H          1.09038        6.49299       -2.81594
H          4.60559        6.43330       -0.29272
H         -1.15408        1.44209        0.88001
H         -1.48205       -0.84533        1.73346
