45

C          1.78642       -0.07356       -0.06597
C          1.04177        0.18712       -1.37410
C          1.24076       -0.97985       -2.34182
C         -0.45269        0.41131       -1.13665
O         -0.68837        1.57891       -0.33095
C         -1.22259        1.36449        0.90735
O         -1.28637        0.27066        1.45427
C         -1.88039        2.63652        1.47366
C         -1.32400        3.93947        0.89585
O         -3.31627        2.65461        1.53206
C         -3.97093        2.64484        0.33159
C         -4.87820        3.67255        0.08063
C         -5.58428        3.70809       -1.12913
C         -5.37845        2.72278       -2.09971
O         -6.12611        2.84529       -3.25421
C         -5.66346        2.21867       -4.38642
C         -5.03539        2.98883       -5.36572
C         -4.55901        2.37603       -6.52693
C         -4.71669        1.00015       -6.69879
Cl        -4.09111        0.23816       -8.10897
C         -5.37907        0.23666       -5.73738
C         -5.88103        0.85360       -4.59037
C         -4.50259        1.67391       -1.82031
C         -3.83963        1.61560       -0.59369
H          1.37170       -0.93995        0.46038
H          1.72483        0.79208        0.60108
H          2.84695       -0.26887       -0.25626
H          1.46543        1.09431       -1.82265
H          0.83376       -1.91047       -1.93068
H          0.73742       -0.78524       -3.29514
H          2.30350       -1.13822       -2.55119
H         -0.94832        0.60223       -2.09614
H         -0.92671       -0.48561       -0.71988
H         -1.56256        2.63714        2.52569
H         -1.60206        4.06924       -0.15528
H         -1.72534        4.80049        1.44110
H         -0.23105        3.96381        0.96011
H         -5.04215        4.44653        0.82568
H         -6.29463        4.51017       -1.31317
H         -4.91502        4.05940       -5.22477
H         -4.06507        2.97294       -7.28896
H         -5.50543       -0.83394       -5.87384
H         -6.40819        0.26679       -3.84277
H         -4.32915        0.86436       -2.51953
H         -3.25081        0.73190       -0.38024
