28

O          1.22188        0.54424       -1.83219
C          2.15169        0.31886       -1.08186
O          2.52559       -0.90630       -0.66061
C          3.02940        1.37063       -0.54789
C          4.35530        1.39610       -1.00684
C          5.21215        2.42066       -0.60527
C          4.74546        3.42668        0.23921
C          3.42474        3.40376        0.69409
C          2.55837        2.36569        0.31601
C          1.18978        2.39043        0.89042
O          0.62671        3.47229        1.03792
C          0.51900        1.16335        1.37915
C         -0.85023        1.02624        1.12191
C         -1.52491       -0.12910        1.52010
C         -0.83701       -1.14691        2.18145
C          0.52286       -1.00691        2.46039
C          1.19208        0.15255        2.07625
O          2.51650        0.23433        2.40982
H          3.14267       -0.89468        0.09995
H          4.71195        0.63820       -1.70241
H          6.23642        2.44982       -0.97121
H          5.40651        4.23882        0.53528
H          3.07018        4.20294        1.34421
H         -1.38807        1.80823        0.58884
H         -2.58443       -0.23972        1.30141
H         -1.36270       -2.05090        2.47976
H          1.05205       -1.79899        2.98315
H          2.64181        1.09500        2.85422
