17

O          1.20448        0.17908       -0.46280
C          2.37303       -0.03029       -0.14294
C          2.84033       -1.39318        0.32924
C          4.04319       -1.26763        1.27044
C          5.01607       -0.13584        0.87987
C          4.76502        1.14484        1.65263
O          3.57580        1.68047        1.05960
C          3.47739        1.03115       -0.21207
O          4.70025        0.30584       -0.44651
H          2.01880       -1.91737        0.82647
H          3.12510       -1.96411       -0.56230
H          4.58300       -2.22255        1.26500
H          3.70112       -1.13148        2.30395
H          6.05713       -0.46406        0.94944
H          5.56853        1.87023        1.48282
H          4.63117        1.00480        2.72840
H          3.28871        1.74234       -1.02013
