14

N          1.24236        0.22528        0.13791
C          0.41781        0.93118       -0.75281
N          0.77197        0.93315       -2.04696
C         -0.05441        1.58666       -2.89832
C         -1.22057        2.23521       -2.51241
C         -1.56352        2.22888       -1.16531
C         -0.72654        1.57582       -0.27731
O         -1.01377        1.59685        1.05833
H          0.71189       -0.54154        0.54297
H          1.99558       -0.14814       -0.43957
H          0.25541        1.57390       -3.93991
H         -1.84103        2.74048       -3.24407
H         -2.45582        2.73436       -0.81200
H         -0.18654        1.30425        1.49067
