21

O          0.99758        0.03083       -0.22040
C          2.20284        0.03944       -0.04757
O          3.06571        0.74902       -0.80536
C          2.88126       -0.77963        0.98107
C          2.43628       -2.08539        1.19190
C          3.05922       -2.88311        2.15298
C          4.12288       -2.38144        2.92075
C          4.75738       -3.17291        3.89078
C          5.80629       -2.65989        4.65529
C          6.23288       -1.34943        4.46167
C          5.61321       -0.54792        3.50160
C          4.55913       -1.04929        2.72096
C          3.92672       -0.25487        1.75112
H          4.00464        0.51956       -0.67202
H          1.60620       -2.48323        0.61103
H          2.70303       -3.90051        2.30306
H          4.43607       -4.19824        4.06188
H          6.28709       -3.28363        5.40476
H          7.04733       -0.94917        5.06037
H          5.96163        0.47441        3.37096
H          4.23252        0.78078        1.61885
