29

O          2.44415        0.90520       -1.49321
C          3.11702        0.41756       -0.59978
O          3.91494       -0.65413       -0.80440
C          3.13836        0.89432        0.83447
C          2.42279        2.22926        1.00810
C          1.00396        2.14064        1.54690
O          0.69358        2.61550        2.63698
C         -0.06225        1.57441        0.69235
C         -0.08247        0.21661        0.38024
C         -1.07170       -0.28491       -0.46512
C         -2.07332        0.55477       -0.97208
C         -3.05961        0.05927       -1.83782
C         -4.06862        0.89343       -2.31834
C         -4.10689        2.23046       -1.93346
C         -3.12541        2.74216       -1.08141
C         -2.09344        1.92008       -0.59941
C         -1.07931        2.41955        0.23620
H          4.41334       -0.94455       -0.01733
H          2.72034        0.11809        1.48246
H          4.19302        1.03281        1.10140
H          2.98415        2.80624        1.75627
H          2.42095        2.84105        0.09971
H          0.65453       -0.46899        0.78081
H         -1.05459       -1.34078       -0.72611
H         -3.04618       -0.98323       -2.14803
H         -4.82453        0.49701       -2.99112
H         -4.89886        2.87797       -2.30066
H         -3.17199        3.79122       -0.79758
H         -1.07539        3.46789        0.52784
