68

O          2.05939       -1.70134        1.16862
C          2.83692       -0.76036        1.11752
O          3.08293       -0.05826       -0.01995
C          4.38520       -0.25013       -0.62485
C          4.93571        1.09667       -1.14892
N          5.34212        1.95959       -0.04635
C          6.67950        1.71453        0.51449
C          7.77278        2.72350        0.10605
N          7.30820        4.11332        0.31711
C          7.51928        4.65906        1.58540
C          8.82119        4.69592        2.11366
C          9.10625        5.25819        3.36209
C          8.08280        5.79890        4.12967
C          6.76958        5.78474        3.64831
C          5.66130        6.37884        4.48227
F          5.71480        5.98108        5.78494
F          5.69747        7.73952        4.50637
F          4.41419        6.04443        4.04625
C          6.50977        5.23414        2.37399
C          6.07497        4.38634       -0.44266
C          4.95703        3.37366       -0.12425
C          3.53992       -0.24676        2.32519
C          3.89518        1.09448        2.42119
C          4.69925        1.54859        3.46645
C          5.15489        0.65501        4.42735
C          4.65701       -0.64496        4.43910
C          3.75304       -1.06745        3.44727
N          2.72166       -2.00518        3.87295
C          1.67706       -1.39003        4.67596
C          0.83821       -0.43288        4.08748
C          0.03976        0.34327        4.89886
N         -0.02941        0.19683        6.23280
C          0.72416       -0.75593        6.79841
C          0.57404       -0.95698        8.15871
C          1.27291       -1.95960        8.84513
C          0.95397       -2.26136       10.28589
F          0.03665       -1.41643       10.83385
F          0.44031       -3.51405       10.44146
F          2.04722       -2.20274       11.09376
C          2.21871       -2.71797        8.14785
C          2.40266       -2.51841        6.77880
C          1.62807       -1.56898        6.07766
H          5.08534       -0.74228        0.06040
H          4.23734       -0.92018       -1.47981
H          5.77517        0.92760       -1.83278
H          4.13502        1.56691       -1.73228
H          6.59881        1.75625        1.60453
H          7.02088        0.69657        0.29110
H          8.00275        2.59047       -0.95798
H          8.69500        2.49547        0.65120
H          9.65274        4.31661        1.52410
H         10.13148        5.28354        3.72253
H          8.31082        6.23961        5.09902
H          5.48240        5.25390        2.02247
H          6.31459        4.30994       -1.51052
H          5.72326        5.41266       -0.28526
H          4.12374        3.52608       -0.82087
H          4.54165        3.63599        0.85474
H          3.53622        1.79643        1.67677
H          4.98975        2.59490        3.50717
H          5.81339        0.99569        5.22123
H          4.87272       -1.29083        5.28601
H          2.26372       -2.31745        3.00044
H          0.83544       -0.24609        3.02151
H         -0.57425        1.13722        4.48391
H         -0.14636       -0.33480        8.68953
H          2.78851       -3.49228        8.65899
H          3.11957       -3.13749        6.24268
