48

C          1.13668        0.41097       -0.26229
C          0.90796       -0.71365       -1.26011
C          1.37449       -2.07589       -0.74084
C          0.64574       -2.56734        0.51466
C         -0.87056       -2.71495        0.35141
C         -1.29144       -3.70785       -0.73783
C         -0.80822       -5.14385       -0.50206
C         -1.28523       -5.76277        0.81599
C         -2.80727       -5.80089        0.97469
C         -3.51090       -6.73295       -0.01745
C         -3.31628       -8.22234        0.28915
C         -3.96355       -8.68507        1.59580
O         -5.39389       -8.63466        1.47454
C         -6.02413       -7.52428        1.95059
O         -5.48654       -6.62537        2.58499
C         -7.52334       -7.57048        1.63122
C         -7.83203       -8.30113        0.32924
O         -8.27075       -8.16287        2.68691
H          0.54307        0.27147        0.64603
H          0.84698        1.37020       -0.70167
H          2.19231        0.47041        0.02087
H         -0.15126       -0.74824       -1.53755
H          1.45807       -0.48453       -2.18020
H          1.26608       -2.81486       -1.54345
H          2.44839       -2.02738       -0.52339
H          1.08019       -3.52705        0.81820
H          0.84499       -1.88454        1.34833
H         -1.29960       -3.01468        1.31466
H         -1.31763       -1.73902        0.13125
H         -2.38400       -3.69303       -0.82439
H         -0.92531       -3.36898       -1.71330
H         -1.13271       -5.76591       -1.34351
H          0.28698       -5.17490       -0.52645
H         -0.87393       -6.77445        0.90284
H         -0.86086       -5.20341        1.65792
H         -3.03399       -6.09164        2.00429
H         -3.22296       -4.79321        0.86726
H         -4.57991       -6.49574       -0.03468
H         -3.16157       -6.53402       -1.03624
H         -3.75988       -8.79004       -0.53849
H         -2.24892       -8.46594        0.30503
H         -3.70487       -9.73600        1.76447
H         -3.60281       -8.13547        2.47079
H         -7.85654       -6.53187        1.52141
H         -7.59208       -9.36787        0.40553
H         -8.90092       -8.23973        0.10041
H         -7.26670       -7.88078       -0.50899
H         -7.87414       -9.03314        2.86737
