64

C          1.02530       -0.11429       -1.00857
C          1.39482       -0.74015        0.32745
C          2.88287       -0.43626        0.61523
O          0.64590       -0.12008        1.35854
C          0.72519       -1.07415        2.40099
C         -0.59138       -1.12179        3.13773
C         -0.44463       -2.51884        3.68087
C         -1.32929       -2.92963        4.84362
C         -1.16933       -1.81114        5.91453
C         -1.50064       -2.18525        7.33410
F         -2.84883       -2.16848        7.49959
C         -0.95038       -3.53531        7.64397
C          0.14932       -3.63585        8.42031
C          0.20574       -4.87424        9.24094
O          1.03786       -4.97828       10.12712
C         -0.84805       -5.90573        8.93700
C         -0.93590       -6.02800        7.39948
C         -1.44005       -4.69550        6.75054
C         -2.97852       -4.79091        6.69440
C         -0.81846       -4.32998        5.34120
C         -0.86799       -5.33321        4.16105
O         -2.19233       -5.61931        3.74486
C          0.01741       -4.85034        2.94602
C         -0.24050       -3.38888        2.41316
C         -1.39172       -3.44601        1.39042
C          0.96328       -2.49396        1.77611
C          2.30453       -3.15951        2.11555
O          2.89712       -2.93645        3.17450
C          2.87901       -4.14060        1.08008
O          1.96442       -5.04736        0.49719
O          1.03990       -2.14674        0.37653
H          0.93653        0.97573       -0.91739
H          0.07145       -0.49728       -1.37962
H          1.78560       -0.33123       -1.76693
H          3.54813       -0.93051       -0.09494
H          3.05923        0.64736        0.58996
H          3.19715       -0.74261        1.61803
H          1.51996       -0.78178        3.09764
H         -1.46521       -1.00032        2.48706
H         -0.64071       -0.32066        3.87703
H          0.54409       -2.53888        4.17547
H         -2.37637       -2.97779        4.52943
H         -1.79029       -0.95414        5.63073
H         -0.12548       -1.46404        5.92008
H         -1.09773       -1.42647        8.01534
H          1.12257       -3.56566        7.91520
H         -0.55580       -6.85077        9.39995
H         -1.79214       -5.57467        9.38846
H         -1.60876       -6.86029        7.16344
H          0.05205       -6.29843        7.00773
H         -3.29729       -5.70395        6.18028
H         -3.41015       -4.80999        7.70118
H         -3.44329       -3.95784        6.16169
H          0.26350       -4.22970        5.53508
H         -0.45161       -6.29052        4.49615
H         -2.65711       -4.79550        3.53147
H         -0.11035       -5.56700        2.12507
H          1.05430       -4.94301        3.28398
H         -2.34086       -3.74477        1.83768
H         -1.55982       -2.49191        0.88195
H         -1.15506       -4.17074        0.59963
H          3.33723       -3.55656        0.27705
H          3.67043       -4.72470        1.56041
H          1.90177       -5.83118        1.06875
