31

C          0.60502       -0.01119        0.31482
N         -0.15796       -1.07675       -0.28479
C         -1.24098       -1.71877        0.24566
O         -1.75846       -2.65798       -0.35218
O         -1.63661       -1.23020        1.48344
C         -2.11328       -2.09782        2.49631
C         -2.61176       -1.48774        3.64603
C         -2.85496       -2.26456        4.77734
C         -2.50725       -3.62005        4.77445
C         -1.97801       -4.22728        3.62982
N         -1.62749       -5.57629        3.68924
C         -0.58512       -6.12429        3.16129
N          0.55386       -5.78867        2.43353
C          1.24155       -6.85280        1.70049
C          0.91396       -4.45612        1.98205
C         -1.90351       -3.47526        2.46380
H          0.31716        0.17319        1.35125
H          0.44945        0.89034       -0.28205
H          1.66313       -0.28565        0.27335
H          0.13234       -1.44537       -1.18076
H         -2.79255       -0.41745        3.66959
H         -3.27421       -1.81468        5.67342
H         -2.65326       -4.21650        5.67212
H         -0.56879       -7.21268        3.35321
H          0.77125       -6.99531        0.72158
H          2.29743       -6.60645        1.54371
H          1.21180       -7.80280        2.24336
H          0.41317       -4.22309        1.03670
H          0.70137       -3.69213        2.73239
H          1.98913       -4.38753        1.77880
H         -1.61932       -3.98390        1.55407
