28

C          0.99214       -0.01247        0.00916
C          0.55264       -1.46934       -0.08822
C          0.90893       -2.32014        1.10706
N          1.44443       -1.69569        2.18326
C          1.75913       -2.47304        3.25056
C          2.30996       -1.96877        4.40291
N          2.64427       -2.70237        5.48469
C          2.42367       -4.01097        5.38673
N          2.75617       -4.79441        6.46933
N          1.87119       -4.61032        4.33647
C          1.55194       -3.85318        3.28722
N          1.00448       -4.44903        2.22462
C          0.68418       -3.69822        1.13350
C          0.07880       -4.46540       -0.01357
C          1.08994       -5.40341       -0.65763
H          0.52593        0.48903        0.86402
H          0.70260        0.52966       -0.89684
H          2.07913        0.06709        0.11775
H         -0.53512       -1.49469       -0.22279
H          1.01686       -1.90198       -0.98219
H          2.50734       -0.90427        4.48883
H          2.76078       -4.24381        7.31605
H          2.21176       -5.64592        6.46664
H         -0.76730       -5.04905        0.36905
H         -0.33436       -3.80085       -0.77779
H          1.44571       -6.15562        0.05498
H          0.63306       -5.93119       -1.50078
H          1.96113       -4.85359       -1.02911
