18

O          1.15042       -0.06335        0.15361
C          2.34448       -0.06774       -0.11098
C          2.97178        0.82790       -1.10841
C          4.02683        0.29479       -1.86142
C          4.64424        1.06890       -2.84134
C          4.21472        2.37752       -3.06320
C          3.17064        2.92931       -2.30102
C          2.80428        4.33671       -2.60172
O          3.32720        5.04855       -3.43934
O          1.79405        4.79761       -1.83770
C          2.54861        2.14879       -1.31168
O          1.56858        2.65213       -0.49961
H          3.02215       -0.80251        0.35606
H          4.35766       -0.73010       -1.70703
H          5.45398        0.65373       -3.43772
H          4.70345        2.97198       -3.83475
H          1.67565        5.72143       -2.15613
H          1.34613        3.55902       -0.79513
