20

C          1.07690        0.05421        0.05517
C          0.45183        0.62677        1.33967
C          0.90693        2.08993        1.47691
C         -1.08475        0.57177        1.28194
C         -1.63520       -0.82665        1.34819
O         -2.00961       -1.40592        2.35371
O         -1.66851       -1.43339        0.14883
C          0.94715       -0.16901        2.54035
O          1.61484       -1.18944        2.51431
O          0.54686        0.34678        3.71835
H          0.67733        0.55098       -0.83590
H          0.89516       -1.02090       -0.04717
H          2.16509        0.18929        0.05351
H          0.60322        2.68112        0.60563
H          0.47845        2.56699        2.36557
H          1.99727        2.15731        1.56844
H         -1.52621        1.12042        2.12473
H         -1.47008        1.06086        0.37863
H         -2.00251       -2.33498        0.34238
H          0.87734       -0.29297        4.38443
