18

C          0.70166       -0.17332       -0.04299
C          0.77519        1.00774        0.92724
C          1.13731        2.37264        0.33674
C          2.32481        2.57168       -0.41608
Br         3.64166        1.17203       -0.51105
C          2.61157        3.82065       -1.02297
Br         4.16832        4.01758       -2.14161
C          1.75533        4.91908       -0.81577
Br         2.15109        6.62014       -1.62660
C          0.62248        4.77421        0.00724
Br        -0.50043        6.29910        0.36532
C          0.31666        3.51181        0.57644
Br        -1.20917        3.36801        1.74897
H          0.42026        0.13202       -1.05471
H         -0.03774       -0.90069        0.31159
H          1.64681       -0.72081       -0.08546
H         -0.21775        1.03038        1.37824
H          1.45834        0.78513        1.75564
