52

C          0.44088        0.10742        0.18841
C          0.11564        1.25409        1.09291
N         -0.53837        1.00241        2.23111
C         -0.77078        2.04664        3.05437
C         -1.49371        1.68774        4.31888
C         -0.30239        3.32847        2.78260
C          0.40276        3.47995        1.60053
N          0.56896        2.46178        0.73804
N          0.98130        4.73544        1.26830
C          1.83974        4.81755        0.08192
C          3.25465        4.35523        0.39180
C          4.25851        5.25366        0.77197
C          5.53628        4.78924        1.12573
C          5.83247        3.41567        1.14637
C          7.16058        2.89251        1.54071
C          7.72013        3.30195        2.76916
C          8.91659        2.75857        3.24531
C          9.58195        1.78615        2.50806
C          9.06105        1.36996        1.28471
C          7.86745        1.92225        0.78387
C          7.39451        1.45269       -0.51128
N          7.03909        2.29451       -1.53923
N          6.60228        1.52690       -2.52811
N          6.71232        0.28076       -2.05904
N          7.22250        0.15451       -0.82506
C          4.80630        2.52901        0.79618
C          3.56138        2.99173        0.38160
C          0.91870        5.83547        2.10350
O          1.32369        6.95583        1.78500
C          0.46294        5.58432        3.51823
C         -0.60353        4.51871        3.63222
H          0.12592        0.33273       -0.83472
H         -0.05938       -0.80878        0.51468
H          1.52160       -0.06828        0.19186
H         -2.19987        0.87230        4.12816
H         -0.77183        1.34945        5.06920
H         -2.07109        2.52183        4.72389
H          1.41322        4.23831       -0.74625
H          1.87469        5.85313       -0.27938
H          4.05457        6.32301        0.79775
H          6.30102        5.51730        1.38867
H          7.20064        4.03244        3.38761
H          9.31641        3.08350        4.20269
H         10.50317        1.34865        2.88381
H          9.58831        0.60684        0.71460
H          6.41886       -0.52181       -2.60840
H          4.96541        1.45332        0.83170
H          2.82606        2.25941        0.06831
H          1.35270        5.29856        4.09241
H          0.08258        6.52241        3.93877
H         -0.68093        4.24197        4.68900
H         -1.57451        4.92377        3.32208
