27

C          1.14372        0.32202       -0.25725
C          0.37607        0.96425        0.64311
C         -1.08687        0.67186        0.73765
C          1.09532        1.82334        1.63532
O          2.30119        1.67453        1.83952
N          0.44694        2.74297        2.39629
C         -0.70146        3.54290        2.08877
N         -1.54640        3.57409        3.24002
C         -2.53833        4.42234        3.61038
O         -3.07696        4.24739        4.70199
C         -2.93547        5.59683        2.77190
C         -2.96740        5.59764        1.43001
C         -3.43837        6.77499        3.56255
H          0.72170       -0.38140       -0.96802
H          2.22224        0.45861       -0.29495
H         -1.43919        0.70408        1.77251
H         -1.66296        1.38036        0.13484
H         -1.31678       -0.33098        0.35829
H          1.09914        3.18596        3.03040
H         -0.35328        4.55229        1.85151
H         -1.25617        3.15706        1.23804
H         -1.39541        2.83665        3.91441
H         -3.31022        6.47426        0.88635
H         -2.70928        4.73972        0.82553
H         -4.34528        6.50565        4.11576
H         -2.68191        7.11479        4.27697
H         -3.69137        7.62456        2.91871
