28

C          1.02635       -0.19982        0.11488
C          0.65102        0.17664        1.54041
C          1.10885        1.58170        1.94235
C          0.54850        2.72664        1.08729
C         -0.99341        2.84969        1.06516
C         -1.60855        3.05057        2.47017
C         -1.16037        4.30723        3.20526
C         -1.46296        3.96909        0.10846
N         -1.16576        3.66869       -1.28986
H          0.49722        0.41805       -0.61663
H          0.76068       -1.24356       -0.08119
H          2.10261       -0.08783       -0.05049
H         -0.43119        0.07325        1.67322
H          1.11541       -0.54513        2.22326
H          0.85816        1.74769        2.99616
H          2.20438        1.62078        1.88749
H          0.98511        3.66771        1.44382
H          0.92758        2.60209        0.06723
H         -1.40528        1.90764        0.67913
H         -2.70170        3.07869        2.37611
H         -1.38968        2.17900        3.09748
H         -1.41818        5.21318        2.64934
H         -1.65933        4.36603        4.17832
H         -0.08239        4.30598        3.38865
H         -2.54739        4.09716        0.19992
H         -0.99683        4.92493        0.37084
H         -1.53736        4.41324       -1.87914
H         -0.15870        3.67160       -1.43983
