22

Cl        -2.74384        0.76933       -0.05231
C         -1.23461       -0.05577       -0.02415
C         -1.20704       -1.43783        0.13473
C          0.01836       -2.10934        0.16095
C          1.23218       -1.40906        0.02517
C          2.50014       -2.16136        0.06072
C          2.87120       -2.92805       -1.06029
C          4.06430       -3.65580       -1.07183
C          4.90436       -3.62355        0.03692
Cl         6.37435       -4.51698        0.01920
C          4.56093       -2.88010        1.16183
C          3.36230       -2.15926        1.17617
Cl         2.97353       -1.29507        2.62569
C          1.17416       -0.01141       -0.15018
Cl         2.60433        0.93718       -0.38223
C         -0.05149        0.66241       -0.16741
H         -2.13198       -1.99944        0.24174
H          0.02256       -3.19017        0.29421
H          2.22906       -2.95769       -1.93935
H          4.33053       -4.24080       -1.94891
H          5.21953       -2.86359        2.02581
H         -0.08105        1.74087       -0.29600
