51

C          2.68111       -0.25182        0.04046
C          1.18270       -0.22269        0.00956
C          0.44616       -1.41246        0.00489
C         -0.95375       -1.38812       -0.04496
C         -1.64822       -0.17130       -0.10047
C         -3.16386       -0.09537       -0.17109
C         -3.74747       -0.95675       -1.29330
N         -3.74349       -0.46655        1.10706
C         -4.56924        0.20664        1.94851
O         -4.91491       -0.38523        2.97871
C         -5.12061        1.62723        1.66027
N         -4.01990        2.60424        1.61823
C         -3.50525        3.36989        0.61848
O         -2.53571        4.08930        0.81513
O         -4.14590        3.23032       -0.55959
C         -3.77263        4.00225       -1.72060
C         -3.83377        5.50441       -1.47527
C         -2.44556        3.54055       -2.30520
C         -6.19854        1.68309        0.55109
C         -7.26263        0.58946        0.72204
C         -6.92560        3.03943        0.54348
C         -0.89585        1.01089       -0.06940
C          0.49827        0.99090       -0.02178
H          3.03251       -0.78988        0.92604
H          3.06608       -0.74086       -0.85981
H          3.10019        0.75985        0.07643
H          0.96098       -2.37015        0.03931
H         -1.48970       -2.33394       -0.04134
H         -3.45180        0.92555       -0.40083
H         -3.55251       -2.02387       -1.14202
H         -4.83499       -0.83374       -1.34700
H         -3.32678       -0.67034       -2.26367
H         -3.47409       -1.36879        1.47889
H         -5.63422        1.89896        2.59529
H         -3.47878        2.68769        2.47016
H         -4.54893        3.76758       -2.45884
H         -3.01378        5.84963       -0.83892
H         -3.77027        6.05198       -2.42074
H         -4.76916        5.77391       -0.97423
H         -2.44721        2.45424       -2.44529
H         -2.26090        4.01333       -3.27481
H         -1.60687        3.78196       -1.64600
H         -5.73906        1.51763       -0.42818
H         -7.77059        0.67747        1.68865
H         -8.02157        0.66865       -0.06459
H         -6.82796       -0.41181        0.65221
H         -6.24174        3.89127        0.56322
H         -7.53873        3.13535       -0.35918
H         -7.58653        3.13940        1.41133
H         -1.38351        1.97767       -0.08702
H          1.03757        1.93571       -0.00943
