23

C          1.17214        0.09320        0.12701
C          0.31364        0.04634        1.15180
O         -1.04722        0.02417        1.16458
C         -1.79189        0.05501       -0.05518
C         -2.70414       -1.17447       -0.08650
C         -3.62814       -1.15126       -1.29981
C         -4.44108        0.13975       -1.36335
C         -3.55161        1.37913       -1.29247
C         -2.62483        1.33952       -0.08129
H          0.87715        0.12374       -0.91270
H          2.24004        0.10087        0.32405
H          0.66968        0.01710        2.17733
H         -1.15792        0.03054       -0.94602
H         -2.09480       -2.08622       -0.09550
H         -3.29805       -1.22195        0.83574
H         -4.30486       -2.01233       -1.26564
H         -3.03026       -1.25076       -2.21418
H         -5.15623        0.15879       -0.53182
H         -5.02748        0.16007       -2.28892
H         -4.17587        2.27875       -1.25107
H         -2.95075        1.44905       -2.20756
H         -3.21361        1.42020        0.84204
H         -1.96063        2.21205       -0.08763
