24

N         -2.11616       -1.96584        0.32383
C         -1.50230       -0.71828        0.09439
C         -2.36976        0.39181        0.15315
C         -1.89479        1.68583        0.04632
C         -0.53122        1.89221       -0.06330
C          0.37233        0.82027       -0.06138
C          1.73330        1.15884       -0.11156
C          2.72252        0.19145       -0.08645
C          2.35402       -1.13902       -0.02661
C          0.99195       -1.51810        0.01575
S          0.78030       -3.28548        0.06703
O          1.84647       -3.87907       -0.72011
O          0.58694       -3.68705        1.44033
O         -0.56031       -3.69408       -0.73259
C         -0.06942       -0.54129        0.01254
H         -1.70254       -2.70633       -0.24025
H         -3.12071       -1.95648        0.17494
H         -3.44045        0.24437        0.27582
H         -2.57990        2.52823        0.06957
H         -0.17407        2.91931       -0.12599
H          2.04255        2.20274       -0.15411
H          3.77148        0.47398       -0.11031
H          3.14263       -1.89120       -0.00685
H         -0.67151       -4.66269       -0.60542
