33

C          0.74821        0.08080       -0.31372
C          0.50550        1.44169        0.25053
C         -0.06961        1.66096        1.44152
C          0.01279        3.11485        1.66726
O         -0.45975        3.64061        2.66744
N          0.65321        3.66808        0.55972
C          0.76190        5.05323        0.26256
C          0.81891        5.98936        1.30683
C          1.01521        7.34870        1.04783
C          1.14025        7.79790       -0.26331
C          1.05698        6.88882       -1.31291
C          0.86670        5.52809       -1.05146
N          0.89972        2.62856       -0.38437
C          2.14621        2.66561       -1.08878
C          3.31548        3.23257       -0.55844
C          4.48116        3.31628       -1.32564
C          4.50144        2.81748       -2.62666
C          3.35900        2.22981       -3.16247
C          2.19152        2.15731       -2.39997
H          0.31182       -0.01342       -1.31204
H          0.30143       -0.69740        0.31539
H          1.82142       -0.12866       -0.37267
H         -0.46806        0.96294        2.15583
H          0.75520        5.67427        2.34570
H          1.08141        8.05135        1.87488
H          1.30081        8.85342       -0.46452
H          1.14492        7.23450       -2.34044
H          0.79236        4.85090       -1.89743
H          3.32570        3.63414        0.45168
H          5.37010        3.78297       -0.90878
H          5.40627        2.89256       -3.22432
H          3.36972        1.84183       -4.17765
H          1.29729        1.72447       -2.84231
