21

C          1.08651       -0.20820        0.03615
C          0.50446       -0.27670        1.44105
C          0.88794        0.92197        2.31799
C          0.41087        2.28436        1.86672
C          1.20642        3.40927        2.13693
C          0.78941        4.68843        1.76273
C         -0.43303        4.86264        1.12033
C         -1.24344        3.75947        0.86411
C         -0.82974        2.48050        1.24525
H          0.69493        0.64650       -0.52307
H          0.82830       -1.11497       -0.52034
H          2.17767       -0.12910        0.06676
H         -0.58382       -0.38707        1.38348
H          0.87908       -1.18766        1.92428
H          0.49580        0.75480        3.32922
H          1.98235        0.93612        2.40626
H          2.16194        3.29587        2.64455
H          1.41919        5.54818        1.97568
H         -0.75736        5.85682        0.82557
H         -2.20198        3.89318        0.36984
H         -1.49209        1.64282        1.04450
