19

C          0.94288       -0.39440        0.23335
C          0.46416       -1.02748       -1.04330
O         -0.24925       -2.03361       -1.01305
N          0.74846       -0.46397       -2.25289
C          1.64468        0.54702       -2.63422
C          2.77907        0.90702       -1.90153
C          3.62641        1.92017       -2.36183
C          3.34086        2.56748       -3.55628
F          4.14906        3.54297       -3.98960
C          2.23466        2.20615       -4.31209
C          1.39629        1.18492       -3.85837
H          0.23562       -0.63927        1.03265
H          0.96374        0.69523        0.15434
H          1.92360       -0.78920        0.50577
H          0.17755       -0.86716       -2.98798
H          3.06557        0.38817       -0.99448
H          4.51299        2.19774       -1.80004
H          2.02989        2.71974       -5.24597
H          0.52990        0.91659       -4.45871
