20

C          0.94638       -0.53212       -0.43117
N          0.42263        0.43863       -1.39014
C         -1.01210        0.61430       -1.19667
C          1.23997        1.68156       -1.51511
C          0.61604        2.82855       -2.37683
S         -0.63235        3.90989       -1.58195
S          0.45785        4.69940       -0.04807
S          0.94551        3.01568        1.00011
C          1.98630        2.20158       -0.24748
H          0.43666       -1.49570       -0.54156
H          0.81433       -0.20446        0.60596
H          2.00970       -0.72786       -0.60934
H         -1.25207        1.15401       -0.27681
H         -1.46836        1.12072       -2.05255
H         -1.51407       -0.35984       -1.14958
H          2.06645        1.32912       -2.15259
H          1.41948        3.47808       -2.74512
H          0.15180        2.39937       -3.27252
H          2.52831        1.38921        0.24693
H          2.76925        2.90643       -0.55661
