55

C          1.28017        0.53593        0.18490
C          0.59630       -0.22366       -0.95754
C          1.16938       -1.66228       -1.12210
C          0.73511       -2.78530       -0.20179
C          0.27357       -2.59413        1.09782
C         -0.05815       -3.67428        1.91922
C          0.06796       -5.00158        1.48150
C         -0.25534       -6.14959        2.44883
C          0.71408       -6.07818        3.64966
C         -1.70744       -6.01894        2.95902
C         -0.11401       -7.55315        1.82291
C          0.52430       -5.19606        0.17189
C          0.85629       -4.10905       -0.65210
C         -0.94853       -0.24874       -0.92098
N         -1.75803        0.93206       -1.21899
C         -1.17469        2.19785       -1.64604
C         -1.05485        2.47455       -3.16354
C          0.28565        2.09090       -3.77666
O         -2.14947        1.98954       -3.95166
C         -2.70146        0.72436       -3.56105
C         -1.91256       -0.44113       -4.14982
C         -2.94438        0.63712       -2.03843
H          1.09708        0.10485        1.16787
H          0.96242        1.57754        0.24195
H          2.36544        0.54248        0.03089
H          0.89917        0.29414       -1.87141
H          0.91587       -1.97340       -2.14680
H          2.26577       -1.61333       -1.08906
H          0.14976       -1.60804        1.52594
H         -0.40582       -3.45259        2.92541
H          0.61018       -5.14234        4.21057
H          0.53362       -6.89675        4.35525
H          1.75728       -6.14485        3.31783
H         -2.42063       -6.03133        2.12637
H         -1.96492       -6.84403        3.63313
H         -1.87183       -5.09087        3.51749
H         -0.79105       -7.68361        0.97088
H          0.90925       -7.74118        1.47814
H         -0.35563       -8.33499        2.55304
H          0.64868       -6.19358       -0.24173
H          1.22225       -4.31233       -1.65685
H         -1.27151       -1.07844       -1.56154
H         -1.26084       -0.55001        0.08530
H         -1.86645        2.96228       -1.26107
H         -0.23695        2.43218       -1.14231
H         -1.10992        3.56636       -3.26880
H          0.35663        2.48931       -4.79457
H          1.11513        2.50357       -3.19270
H          0.42777        1.01525       -3.86373
H         -3.68786        0.69072       -4.04007
H         -2.44291       -1.38611       -3.99447
H         -1.76522       -0.29715       -5.22544
H         -0.91978       -0.54746       -3.71200
H         -3.38591       -0.33134       -1.77086
H         -3.70588        1.38503       -1.77894
