31

C          1.10400       -0.12085       -0.06642
C          0.53896        0.05844       -1.47693
C          1.12978       -0.98250       -2.43271
C         -0.97932        0.04947       -1.44457
C         -1.67723        1.26459       -1.47119
C         -3.07511        1.29101       -1.41618
C         -3.82004        0.10605       -1.32816
C         -5.29067        0.13567       -1.26209
C         -6.04602        0.82484       -2.22568
C         -7.44186        0.85642       -2.16075
C         -8.10695        0.19911       -1.12899
C         -7.37800       -0.49012       -0.16336
C         -5.98236       -0.52144       -0.23056
C         -3.11638       -1.10706       -1.29587
C         -1.71779       -1.13650       -1.34820
H          0.82570       -1.09100        0.36024
H          0.73062        0.65800        0.60806
H          2.19743       -0.05805       -0.07604
H          0.86753        1.03939       -1.84614
H          0.95221       -2.00694       -2.08861
H          0.70058       -0.88386       -3.43579
H          2.21412       -0.85051       -2.51756
H         -1.13765        2.20763       -1.52722
H         -3.58157        2.25414       -1.42544
H         -5.54667        1.33596       -3.04635
H         -8.00735        1.39300       -2.91800
H         -9.19216        0.22416       -1.07729
H         -7.89300       -1.00157        0.64550
H         -5.43143       -1.05500        0.54145
H         -3.65761       -2.04929       -1.23600
H         -1.21810       -2.10102       -1.30747
