44

C          1.27833        2.45689        0.40689
O          1.13466        3.71088        1.06967
C          0.97019        3.66771        2.44883
C          0.91295        2.50058        3.14041
C         -0.41835        2.00387        3.51110
C         -1.44080        2.86316        3.65210
C         -2.89903        2.54979        3.89863
C         -3.78697        3.02407        2.68152
C         -3.26155        4.22622        1.92643
C         -3.85910        4.76271        0.78742
C         -3.22093        5.80276        0.07781
C         -1.96868        6.30240        0.47232
O         -1.45332        7.30385       -0.29968
C         -0.72038        8.28146        0.43493
C         -1.36339        5.71850        1.56765
C         -2.04015        4.76471        2.30240
C         -1.24836        4.34984        3.49562
C         -1.76574        5.09660        4.74364
C         -2.42733        4.14137        5.74737
N         -3.38855        3.21070        5.13553
C         -3.81698        2.21979        6.12470
C          0.13699        4.84466        3.00399
O         -0.08355        5.91473        2.02767
H          1.36900        2.64949       -0.66596
H          0.39493        1.82555        0.55509
H          2.18505        1.94042        0.73845
H          1.46985        2.49579        4.08630
H         -0.54764        0.93052        3.60315
H         -3.02977        1.46179        3.97676
H         -4.81569        3.21768        3.00989
H         -3.83336        2.19152        1.96615
H         -4.80884        4.37640        0.42703
H         -3.70160        6.21891       -0.80478
H         -1.21394        8.54190        1.37901
H          0.30842        7.95248        0.60577
H         -0.67991        9.19091       -0.17293
H         -2.48372        5.88377        4.47548
H         -0.94250        5.60276        5.26270
H         -2.94120        4.74433        6.50640
H         -1.63636        3.58838        6.27369
H         -4.60951        1.58351        5.71562
H         -2.98815        1.57722        6.44513
H         -4.23402        2.71091        7.01070
H          0.72219        5.28972        3.81875
