32

C          1.08903        0.25210       -0.16931
C          0.56546        0.42899       -1.57515
O          0.28740       -0.56573       -2.24422
N          0.51369        1.73270       -2.07084
C          1.48804        2.73815       -1.61678
C          2.84808        2.60084       -2.33956
N          2.81499        3.00980       -3.75354
C          2.83511        4.40595       -3.93025
C          2.66056        4.98190       -5.31334
O          3.00505        5.17567       -2.97635
C          2.76253        2.10040       -4.81285
C          2.65820        0.62176       -4.51307
O          2.79051        2.42545       -6.00262
C         -0.32842        2.13306       -3.11592
C         -1.34714        1.15752       -3.65238
O         -0.23893        3.24913       -3.63575
H          0.80383       -0.73901        0.19753
H          0.64280        0.98836        0.50465
H          2.17893        0.32962       -0.15921
H          1.07685        3.74477       -1.75051
H          1.66075        2.62650       -0.54280
H          3.57449        3.23567       -1.81561
H          3.22973        1.58704       -2.22316
H          2.60368        6.07305       -5.24032
H          3.52057        4.73790       -5.94168
H          1.72458        4.63564       -5.75867
H          1.61139        0.34813       -4.38007
H          3.04087        0.06641       -5.37662
H          3.25492        0.29836       -3.66326
H         -2.18524        1.72220       -4.07327
H         -0.89139        0.56343       -4.44932
H         -1.75916        0.51212       -2.87556
