16

O          1.20043       -0.34449       -0.00667
C          2.36826       -0.21199        0.03272
N          3.53253       -0.06357        0.06597
C          4.18446       -0.54225       -1.08522
C          5.26804       -1.41028       -0.92548
C          5.99326       -1.86579       -2.03363
C          5.66585       -1.46522       -3.33527
N          6.48620       -1.95493       -4.37220
C          6.05623       -1.86100       -5.45920
O          5.62411       -1.75523       -6.54775
C          4.58788       -0.57768       -3.49171
C          3.86231       -0.11929       -2.38287
H          5.56371       -1.72878        0.07195
H          6.83741       -2.53480       -1.87546
H          4.29757       -0.20919       -4.47380
H          3.04986        0.58605       -2.54719
