16

O          2.20037        1.39378       -0.02603
C          1.48824        0.41026       -0.01669
O          1.89636       -0.89489       -0.01107
C          0.78098       -1.81240       -0.00028
C         -0.39465       -0.92101        0.00210
C         -1.74587       -1.22011        0.01254
C         -2.65747       -0.15840        0.01123
C         -2.21067        1.17468       -0.00060
C         -0.84508        1.46120       -0.01067
C          0.03198        0.39083       -0.00874
H          0.82904       -2.43415       -0.89843
H          0.83932       -2.42591        0.90288
H         -2.09767       -2.24740        0.02157
H         -3.72616       -0.36450        0.01938
H         -2.93465        1.98665       -0.00179
H         -0.47941        2.48306       -0.01968
