32

C          1.13368        0.13949       -0.20118
C          0.83374       -1.24439       -0.75690
C          1.27762       -2.38063        0.16949
C          0.60770       -2.40239        1.54881
C         -0.92117       -2.49310        1.52292
C         -1.47248       -3.79347        0.92869
C         -1.18608       -5.05978        1.74849
C         -1.70433       -5.04646        3.18717
C         -3.21010       -5.11260        3.25204
O         -3.84130       -6.12882        3.50937
O         -3.75527       -3.90253        2.95551
C         -5.17467       -3.90981        2.80170
H          0.57603        0.33481        0.71941
H          0.84961        0.90684       -0.92829
H          2.20169        0.25219        0.01038
H         -0.23542       -1.32592       -0.98051
H          1.35524       -1.35486       -1.71518
H          1.10156       -3.33586       -0.33851
H          2.36311       -2.31394        0.31471
H          1.01735       -3.24085        2.12402
H          0.89351       -1.50021        2.10228
H         -1.29719       -2.35906        2.54292
H         -1.33026       -1.64860        0.95711
H         -2.55439       -3.68424        0.79477
H         -1.07603       -3.93629       -0.08298
H         -1.63030       -5.91231        1.21868
H         -0.10525       -5.24060        1.76579
H         -1.32270       -5.93226        3.71053
H         -1.34685       -4.18756        3.76285
H         -5.51121       -4.77480        2.22047
H         -5.65447       -3.89012        3.78340
H         -5.45616       -3.00680        2.25228
