13

C          0.81718       -0.01419        0.11309
C          0.43675        1.05839        1.06953
C          0.97824        2.26430        1.18972
C          0.30137        2.98209        2.28826
C         -0.67172        1.91679        2.73800
O         -1.45674        2.04772        3.66921
O         -0.58044        0.77402        1.97694
H          0.25478        0.09101       -0.81953
H          0.60280       -1.00228        0.53286
H          1.88681        0.02257       -0.11726
H          1.77879        2.66490        0.58612
H         -0.23703        3.86024        1.92534
H          0.99550        3.23033        3.09374
