23

O          0.97896        0.40849       -1.14160
C          2.13846        0.47837       -0.76661
O          2.63348        1.59149       -0.17690
C          3.15876       -0.64629       -0.92647
O          2.57309       -1.93241       -0.78457
C          2.79522       -2.67092        0.34037
C          2.97251       -4.03528        0.05693
C          3.08615       -4.98906        1.07593
C          3.00074       -4.58423        2.41142
N          3.07213       -5.58339        3.48524
O          3.31974       -6.75363        3.16618
O          2.88449       -5.18978        4.64416
C          2.82757       -3.23436        2.72946
C          2.72910       -2.29360        1.68799
N          2.51560       -0.92771        2.10660
O          1.43645       -0.66299        2.64417
O          3.46056       -0.13944        1.94791
H          3.49603        1.46996        0.26970
H          3.51489       -0.57181       -1.96125
H          4.04710       -0.52119       -0.30320
H          3.00371       -4.36785       -0.98131
H          3.21522       -6.03695        0.80792
H          2.74603       -2.90993        3.76681
