28

O          0.85547        0.14198        0.06830
C          2.07534        0.04191        0.06780
C          2.87206        1.29102        0.06767
C          2.17237        2.51114        0.06900
C          2.85686        3.72034        0.06868
C          4.24670        3.71888        0.06619
C          4.95705        2.50490        0.06447
S          6.73032        2.60065        0.05743
O          7.22242        2.13540        1.33459
O          7.21247        2.12541       -1.21990
O          7.06922        4.18203        0.04982
C          4.27088        1.27416        0.06600
C          4.94190       -0.04290        0.06728
O          6.16032       -0.13208        0.06984
C          4.15140       -1.29233        0.06710
C          4.85116       -2.51225        0.06736
C          4.16407       -3.72019        0.06759
C          2.77407       -3.71323        0.06746
C          2.06472       -2.50254        0.06726
Cl         0.34210       -2.66106        0.06709
C          2.75420       -1.27437        0.06722
H          1.08214        2.52245        0.07038
H          2.30733        4.65948        0.06991
H          4.76416        4.67659        0.06537
H          8.04609        4.26738        0.04664
H          5.94141       -2.52387        0.06752
H          4.70967       -4.66117        0.06790
H          2.24000       -4.66219        0.06760
