20

N         -3.13278        0.73356        0.12286
C         -1.82428        0.43526        0.08685
N         -0.88781        1.34758        0.05367
C          0.35876        0.74764        0.02929
C          1.59734        1.41458        0.00447
C          2.78277        0.67043       -0.01400
C          2.76182       -0.72555       -0.01021
O          4.00264       -1.30047       -0.02528
C          4.08054       -2.71565        0.00041
F          3.50672       -3.21492        1.11574
F          3.49229       -3.25361       -1.08917
F          5.38198       -3.07869       -0.00162
C          1.53930       -1.40609        0.00803
C          0.35211       -0.64675        0.02962
S         -1.28207       -1.19005        0.06005
H         -3.79392        0.03454       -0.19118
H         -3.37454        1.68579       -0.12694
H          1.62324        2.49979        0.00363
H          3.73478        1.19825       -0.02923
H          1.46712       -2.48823        0.00941
