26

C          1.03694        0.01273        0.15477
C          0.56274       -0.79527       -1.04621
C          1.03284       -2.26313       -1.03288
C          0.51006       -3.01102        0.20106
C          0.58241       -3.02367       -2.30224
C          1.09790       -2.47374       -3.64810
C          2.62468       -2.43358       -3.71778
C          0.55164       -3.32785       -4.79660
H          0.57666       -0.33520        1.08381
H          0.76366        1.06549        0.02816
H          2.12482       -0.04353        0.26065
H         -0.53191       -0.75259       -1.09742
H          0.94172       -0.29370       -1.94293
H          2.12786       -2.28134       -0.98036
H         -0.58296       -2.97006        0.25617
H          0.80801       -4.06489        0.17246
H          0.91592       -2.58975        1.12568
H          0.90150       -4.07119       -2.21173
H         -0.51558       -3.04219       -2.32943
H          0.71781       -1.45654       -3.79556
H          3.05709       -3.42022       -3.51968
H          2.95994       -2.11147       -4.70963
H          3.03854       -1.72666       -2.99254
H         -0.54341       -3.33810       -4.78686
H          0.87178       -2.92827       -5.76480
H          0.90206       -4.36320       -4.72497
