33

C          2.10996        0.68829       -0.14506
C          2.09167       -0.69798        0.05805
C          0.88679       -1.40159        0.17712
C         -0.26836       -0.63612        0.07665
O         -1.55643       -1.06532        0.18642
C         -2.31199        0.06986       -0.01199
C         -3.74372        0.06104        0.06219
C         -4.51140       -0.50078        1.06230
C         -5.90675       -0.30234        0.84460
C         -6.16052        0.34927       -0.34563
C         -7.44962        0.67665       -0.88146
N         -7.81862        0.41267       -2.12520
C         -9.12493        0.82456       -2.18327
C        -10.06255        0.77929       -3.22264
C        -11.34432        1.29723       -2.97935
C        -11.67822        1.85013       -1.73591
C        -10.75382        1.89236       -0.68486
C         -9.50209        1.35788       -0.96388
O         -8.44231        1.24819       -0.11521
S         -4.71369        0.76768       -1.15625
N         -1.59315        1.16229       -0.21796
C         -0.29446        0.72883       -0.14649
C          0.91798        1.42169       -0.25336
H          3.06358        1.20720       -0.22248
H          3.03352       -1.23961        0.12867
H          0.85190       -2.47145        0.33822
H         -4.09160       -1.00662        1.92414
H         -6.68625       -0.64593        1.51481
H         -9.79998        0.35130       -4.18365
H        -12.08937        1.26956       -3.77231
H        -12.67827        2.25201       -1.58164
H        -10.99392        2.31148        0.28390
H          0.92787        2.49435       -0.41133
