16

O          0.78751        0.04645        0.02650
C          0.65877        0.95733       -1.05955
C          1.08416        2.36235       -0.70050
C          2.29875        2.62998       -0.03753
Cl         3.41687        1.37635        0.38808
C          2.68693        3.93890        0.28003
C          1.88795        5.01647       -0.08535
C          0.70682        4.78393       -0.77901
C          0.31021        3.47556       -1.08907
Cl        -1.15302        3.31928       -2.00202
H          1.73597       -0.00762        0.24144
H          1.24694        0.59251       -1.90843
H         -0.39356        0.90458       -1.34475
H          3.62184        4.12342        0.80441
H          2.19305        6.03195        0.15457
H          0.09486        5.62991       -1.08692
