34

C         -4.45491        1.35267        0.05470
C         -4.77721       -0.01359        0.12823
C         -3.70835       -0.89944        0.13656
C         -2.40493       -0.44945        0.07537
C         -1.49347       -1.48419        0.08836
C         -0.12101       -1.23011        0.04612
C          0.78005       -2.29287        0.05592
C          2.14551       -2.03280        0.02808
C          2.63065       -0.71996       -0.00335
C          4.01897       -0.50320       -0.01516
C          4.54700        0.78473       -0.03716
C          3.69046        1.87425       -0.05095
C          2.30667        1.67379       -0.04375
C          1.72801        0.37932       -0.01882
C          0.31094        0.12981       -0.00134
C         -0.68352        1.15818       -0.02496
C         -2.06126        0.87165        0.01302
C         -3.11984        1.79908       -0.00129
C         -2.22631       -2.78703        0.15572
C         -3.73407       -2.38350        0.21397
H         -5.25924        2.08566        0.04352
H         -5.80295       -0.36033        0.17656
H          0.44447       -3.32506        0.08585
H          2.83461       -2.87498        0.03701
H          4.70758       -1.34584       -0.00320
H          5.62320        0.93364       -0.04155
H          4.09202        2.88410       -0.06549
H          1.68320        2.56301       -0.05235
H         -0.39285        2.20301       -0.07078
H         -2.91432        2.86481       -0.05389
H         -1.93993       -3.35029        1.04973
H         -2.02197       -3.38798       -0.73664
H         -4.18910       -2.70943        1.15511
H         -4.29064       -2.81014       -0.62619
