15

O          0.99169       -0.01063        0.00735
C          2.21988       -0.02545        0.00233
N          2.91449       -1.21786       -0.00024
C          4.28581       -1.38560       -0.00837
O          4.82335       -2.48628       -0.01274
C          4.99524       -0.13957       -0.01146
C          6.32878        0.18636       -0.01819
N          6.36414        1.55518       -0.01776
N          5.13917        2.12721       -0.01154
C          4.31924        1.08195       -0.00773
N          2.95629        1.12866       -0.00120
H          2.35852       -2.05871        0.00209
H          7.22886       -0.41225       -0.02307
H          7.17909        2.16129       -0.02153
H          2.49915        2.02810        0.00052
