63

C          2.00380        0.57535        0.27597
C          1.00994        1.58638       -0.27547
C          1.01968        1.67640       -1.80478
C          0.36734        0.48982       -2.53506
N         -1.09072        0.40557       -2.29093
C         -1.90481        1.31166       -3.13798
C         -2.39977        0.64600       -4.43575
C         -3.75164       -0.07122       -4.35930
C         -4.92455        0.86738       -4.10730
C         -1.63565       -0.51285       -1.36576
S         -0.82773       -1.87940       -0.80621
S         -3.29767       -0.19043       -0.88328
C         -3.33317       -0.38957        0.90506
S         -3.73824       -2.02410        1.58012
C         -4.79963       -2.71447        0.35094
S         -6.33831       -2.06112        0.12700
N         -4.27056       -3.80983       -0.36386
C         -3.23316       -4.71183        0.18619
C         -3.80146       -5.79327        1.11528
C         -4.03571       -7.15724        0.45965
C         -2.76107       -7.82886       -0.03140
C         -4.73254       -4.10512       -1.73177
C         -5.92132       -5.06753       -1.81664
C         -7.07557       -4.57500       -2.69754
C         -6.67293       -4.22159       -4.12138
H          1.83766       -0.42749       -0.12218
H          1.91844        0.52161        1.36616
H          3.03011        0.86733        0.03256
H          0.00381        1.36270        0.09328
H          1.27273        2.57097        0.13068
H          0.50971        2.60327       -2.09141
H          2.05578        1.77533       -2.15129
H          0.51460        0.60794       -3.61653
H          0.88347       -0.43276       -2.26856
H         -2.71722        1.76237       -2.56721
H         -1.26142        2.15279       -3.42611
H         -2.48196        1.42180       -5.20782
H         -1.64797       -0.06732       -4.79524
H         -3.92821       -0.57790       -5.31630
H         -3.72923       -0.86303       -3.60671
H         -5.02699        1.58744       -4.92556
H         -5.85668        0.29667       -4.04312
H         -4.81738        1.42831       -3.17559
H         -2.38894       -0.05006        1.34260
H         -4.09892        0.29854        1.27873
H         -2.64953       -5.13210       -0.63717
H         -2.51474       -4.13195        0.76901
H         -3.09619       -5.94239        1.94339
H         -4.73933       -5.45099        1.56921
H         -4.50533       -7.81612        1.20028
H         -4.74093       -7.07291       -0.36914
H         -2.01821       -7.89861        0.76927
H         -2.98219       -8.84393       -0.37706
H         -2.31539       -7.28835       -0.87100
H         -4.95650       -3.14900       -2.21424
H         -3.88771       -4.52304       -2.29406
H         -5.56792       -6.02223       -2.22660
H         -6.31848       -5.28767       -0.81891
H         -7.83896       -5.36146       -2.73478
H         -7.55267       -3.70433       -2.23705
H         -6.16674       -5.05952       -4.60920
H         -7.56334       -3.97189       -4.70771
H         -6.01094       -3.35115       -4.15211
