11

C          1.02010       -0.08172        0.13556
O          0.55138       -0.75773        1.30364
C          0.96051       -2.06346        1.40181
O          1.66876       -2.61969        0.56701
C          0.41355       -2.70331        2.67703
F          0.83086       -2.05550        3.80272
F         -0.95000       -2.69507        2.71797
F          0.78941       -4.00462        2.82722
H          0.63733        0.94227        0.16022
H          0.64248       -0.57128       -0.76751
H          2.11382       -0.04286        0.12872
