32

C          1.05913       -0.06569        0.04894
N          0.62592        1.29516        0.31274
C          0.13067        2.05013       -0.82901
C          1.01690        1.85918        1.52832
O          1.82101        1.30982        2.27915
C          0.40345        3.13359        1.99461
C          1.17609        3.99418        2.78025
C          0.59948        5.13487        3.32769
C         -0.75521        5.39890        3.10919
C         -1.56127        4.53938        2.33545
C         -2.99221        4.95516        2.13631
O         -3.27132        6.11374        2.46267
N         -3.98287        4.12366        1.59708
C         -3.93113        2.68096        1.43378
C         -5.29393        4.72419        1.39050
C         -0.95573        3.41291        1.77242
H          0.43063       -0.51328       -0.72612
H          0.98055       -0.66861        0.95923
H          2.10291       -0.04752       -0.27777
H         -0.90960        1.76041       -1.00576
H          0.19709        3.12791       -0.66913
H          0.72588        1.79992       -1.71239
H          2.22253        3.76808        2.97630
H          1.19509        5.81279        3.93444
H         -1.18442        6.29693        3.55405
H         -4.93782        2.25576        1.49702
H         -3.53379        2.46401        0.43708
H         -3.32205        2.21831        2.21192
H         -5.86975        4.61784        2.31524
H         -5.21219        5.78609        1.14135
H         -5.81201        4.21676        0.57141
H         -1.51277        2.72343        1.16008
