56

C          1.13874        0.31322        0.24227
C          0.91502        0.49516       -1.25116
C          1.34307       -0.72319       -2.07377
C          0.59975       -2.01908       -1.73254
C         -0.92199       -1.92979       -1.88556
C         -1.39087       -1.66418       -3.32091
C         -1.02073       -2.76841       -4.31776
C         -1.55915       -4.14776       -3.93437
C         -3.08699       -4.22110       -3.95118
C         -3.71761       -4.15774       -5.35221
C         -3.04396       -4.98941       -6.45509
C         -3.04527       -6.49029       -6.25494
O         -2.86869       -7.28945       -7.16489
O         -3.26304       -6.81496       -4.96236
C         -3.57823       -8.16667       -4.61277
C         -5.08845       -8.25612       -4.39435
C         -5.91621       -8.05638       -5.67036
C         -5.67011       -9.10528       -6.75959
C         -6.07418      -10.52886       -6.37778
C         -7.57846      -10.69061       -6.23554
H          0.52800       -0.49941        0.64698
H          0.86673        1.22713        0.77872
H          2.18977        0.09282        0.45349
H         -0.13785        0.73412       -1.43730
H          1.48921        1.36488       -1.59055
H          1.21330       -0.49327       -3.13792
H          2.41768       -0.89076       -1.93228
H          0.99330       -2.82644       -2.36114
H          0.83325       -2.31633       -0.70387
H         -1.36864       -2.85661       -1.50861
H         -1.31969       -1.14494       -1.23346
H         -2.47753       -1.52356       -3.31264
H         -0.98138       -0.71388       -3.68013
H         -1.39132       -2.48748       -5.31043
H          0.06896       -2.82941       -4.41537
H         -1.12953       -4.90072       -4.60365
H         -1.20047       -4.43360       -2.93998
H         -3.39639       -5.13754       -3.43848
H         -3.52208       -3.42540       -3.33666
H         -4.77057       -4.45533       -5.26656
H         -3.72474       -3.11038       -5.67932
H         -3.59663       -4.80166       -7.38430
H         -2.01277       -4.66397       -6.62043
H         -3.20178       -8.88901       -5.34195
H         -3.06789       -8.37045       -3.66491
H         -5.33891       -9.21046       -3.92166
H         -5.38441       -7.46773       -3.68885
H         -6.97831       -8.04089       -5.40176
H         -5.71046       -7.06356       -6.08784
H         -6.21410       -8.80485       -7.66332
H         -4.61309       -9.11525       -7.04032
H         -5.72265      -11.20982       -7.16177
H         -5.57774      -10.84119       -5.45307
H         -8.09052      -10.37775       -7.15123
H         -7.82804      -11.73911       -6.04825
H         -7.96975      -10.09991       -5.40239
