16

N         -0.00340       -1.87533        0.15196
C          0.00092       -0.47396       -0.01573
C          1.20964        0.25063        0.00423
Cl         2.73029       -0.57677        0.02149
C          1.22509        1.64751       -0.01352
C          0.01229        2.34360       -0.01505
N          0.01809        3.81114       -0.02732
O         -1.07653        4.38983       -0.01713
O          1.11730        4.38082       -0.05033
C         -1.20592        1.65732        0.00573
C         -1.20145        0.26035        0.02324
Cl        -2.72827       -0.55477        0.06433
H         -0.85928       -2.32477       -0.16680
H          0.84373       -2.33163       -0.18014
H          2.17713        2.17495       -0.01553
H         -2.15359        2.19241        0.01863
