15

N          0.99607        0.00145       -0.03928
C          0.28577        0.32642       -1.19404
C         -0.70579        1.29560       -1.15679
C         -1.37446        1.60936       -2.33362
C         -1.02459        0.94550       -3.50297
C         -0.02113       -0.01057       -3.44951
N          0.37406       -0.68151       -4.60593
N          0.63714       -0.32043       -2.31900
H          0.37544       -0.26756        0.71448
H          1.63540       -0.74853       -0.29043
H         -0.94182        1.81131       -0.23294
H         -2.14698        2.37183       -2.34243
H         -1.51348        1.18349       -4.44079
H         -0.41153       -1.13052       -5.06084
H          1.08493       -1.35282       -4.32613
