32

C          1.05714       -0.16025        0.02440
N          0.55363       -0.45833        1.35290
C         -0.10896        0.62472        2.06391
C          0.93417       -1.66386        1.93721
O          1.74443       -2.43817        1.43575
C          0.31997       -2.04976        3.22654
C          1.14804       -2.31117        4.31946
C          0.58089       -2.70090        5.53482
C         -0.81048       -2.84888        5.65984
C         -1.33936       -3.32683        6.96879
O         -0.64307       -4.13148        7.58931
N         -2.56407       -2.87252        7.46289
C         -3.29937       -1.71187        6.98472
C         -3.04082       -3.45401        8.70799
C         -1.62628       -2.64757        4.53822
C         -1.06470       -2.22984        3.32624
H          0.37326        0.52395       -0.48605
H          1.15026       -1.07572       -0.56739
H          2.04342        0.30333        0.12116
H         -1.16144        0.63809        1.76781
H         -0.03222        0.50762        3.14709
H          0.35630        1.57694        1.79025
H          2.22790       -2.22526        4.22271
H          1.22923       -2.91485        6.38328
H         -4.16671       -2.06608        6.41927
H         -3.64991       -1.12574        7.84007
H         -2.68371       -1.06206        6.36155
H         -2.65191       -4.46567        8.85411
H         -2.70287       -2.82167        9.53507
H         -4.13378       -3.49526        8.69855
H         -2.69395       -2.84072        4.58651
H         -1.69850       -2.08057        2.45549
