45

C          2.89925        0.22917        1.04216
C          2.91368        1.27799       -0.05803
C          3.29327        0.72882       -1.44155
C          2.37623       -0.37627       -1.97598
O          1.04252        0.05174       -1.80766
C          0.01623       -0.57871       -2.54178
C         -0.43507       -1.93989       -1.99893
C          0.61498       -3.03189       -1.97831
O         -1.18362        0.21620       -2.56014
C         -1.27239        1.35708       -1.68905
C         -1.07405        1.03856       -0.20105
C         -0.41139        2.51565       -2.23529
O         -0.65031        3.80891       -1.69151
C         -1.93232        4.38590       -1.88800
O         -2.69646        3.77268       -2.91217
C         -2.71525        4.36910       -0.57439
C         -1.90131        4.91011        0.59334
H          2.15758       -0.55142        0.84853
H          2.64287        0.69539        1.99950
H          3.88128       -0.24124        1.14617
H          1.93319        1.76466       -0.09989
H          3.62736        2.06471        0.21352
H          3.25771        1.57258       -2.14252
H          4.32738        0.36748       -1.42849
H          2.60161       -0.57286       -3.02941
H          2.54933       -1.28612       -1.40030
H          0.32137       -0.68080       -3.59016
H         -0.83687       -1.81906       -0.98591
H         -1.27978       -2.28422       -2.61120
H          1.25831       -2.93762       -1.09979
H          0.13098       -4.01151       -1.91108
H          1.23038       -3.01886       -2.88237
H         -2.32017        1.65932       -1.76451
H         -1.85731        0.35212        0.13834
H         -0.13302        0.53833        0.03032
H         -1.11615        1.93917        0.41536
H          0.64616        2.32557       -2.04300
H         -0.49114        2.56420       -3.32823
H         -1.77528        5.43111       -2.17777
H         -2.31501        4.07113       -3.74730
H         -3.63630        4.95244       -0.69185
H         -3.03921        3.34952       -0.33824
H         -1.58239        5.93967        0.40424
H         -2.49600        4.89534        1.51113
H         -1.00564        4.30588        0.77150
