31

C          0.92914       -0.06943        0.01258
C         -0.37471       -0.06943        0.01258
C         -1.89471       -0.06943        0.01258
N         -2.39193        1.21187        0.55535
C         -3.84490        1.27719        0.37838
C         -2.00965        1.56919        1.95251
C         -2.24005        0.44099        2.97364
C         -0.57445        2.15955        2.16831
C         -0.14085        3.29137        1.25862
C          1.05679        3.20108        0.53137
C          1.45671        4.21889       -0.33559
C          0.68875        5.37098       -0.44801
C         -0.47221        5.50462        0.31243
C         -0.88582        4.47063        1.15833
H          1.99411       -0.08497        0.00106
H         -2.21777       -0.18509       -1.02924
H         -2.26925       -0.93074        0.57656
H         -4.36819        0.49974        0.94541
H         -4.23471        2.25314        0.68926
H         -4.11066        1.16663       -0.67868
H         -2.67600        2.38894        2.25666
H         -1.59185       -0.42107        2.78707
H         -2.02475        0.79508        3.98850
H         -3.27967        0.09971        2.96736
H         -0.51862        2.55319        3.19403
H          0.17008        1.35721        2.15492
H          1.69325        2.32844        0.62615
H          2.36642        4.10611       -0.91976
H          0.99697        6.16568       -1.12123
H         -1.06116        6.41404        0.24251
H         -1.79491        4.59624        1.73986
