34

C         -1.34659       -0.94197        0.94732
C         -0.27700       -0.93520        2.02447
O          0.73194       -0.04984        1.57097
C          2.02781       -0.18611        2.13962
C          2.71119       -1.50958        1.78650
C          3.00159       -1.68072        0.28205
C          2.30501       -2.94382       -0.24209
C          2.60935       -0.47565       -0.59480
C          2.89784        0.93192       -0.00185
C          1.82175        1.90985       -0.53325
C          4.25979        1.45058       -0.49833
C          2.89076        0.93707        1.55255
H         -1.77347        0.05823        0.82033
H         -2.14744       -1.64594        1.18552
H         -0.90972       -1.21845       -0.01967
H         -0.68194       -0.56901        2.97247
H          0.09527       -1.95134        2.16392
H          1.96121       -0.07261        3.22845
H          3.67071       -1.55335        2.32053
H          2.13955       -2.35932        2.17379
H          4.08276       -1.83859        0.17137
H          2.53390       -3.10949       -1.29943
H          2.62603       -3.82971        0.31598
H          1.21625       -2.86266       -0.14193
H          1.53733       -0.55588       -0.82090
H          3.10283       -0.57755       -1.57117
H          1.98695        2.92611       -0.15909
H          1.83228        1.94973       -1.62824
H          0.81193        1.61278       -0.23222
H          5.07535        0.78533       -0.19748
H          4.27820        1.52971       -1.59173
H          4.46956        2.44819       -0.09476
H          2.52913        1.90618        1.91837
H          3.91384        0.83034        1.93847
