66

C          0.95202       -0.25173       -0.33634
C          0.56464        1.19828       -0.66754
C          0.94334        1.52418       -2.11308
C         -0.95551        1.34115       -0.46467
C          1.31625        2.15784        0.26237
O          2.29337        1.85896        0.93315
O          0.71099        3.37610        0.26508
C          0.78034        4.23187        1.41990
C          0.85252        3.49168        2.74914
C          0.50377        4.46678        3.84864
C          1.41682        5.74393        3.93137
C          2.70520        5.36047        4.69536
C          0.53590        6.80299        4.71455
C          0.26187        6.36503        6.17029
C         -0.47915        7.43041        6.95462
C          0.42552        8.63422        7.19265
C          1.44221        8.36765        8.31751
C         -0.41816        9.81776        7.64830
O         -1.24638        9.83198        8.54494
C         -0.07818       11.01079        6.85498
C         -0.53257       11.12756        5.43167
C          0.84766       10.58903        5.74913
C          1.15709        9.10098        5.88330
C          0.79350        8.33663        4.57095
C          1.62315        8.79424        3.35069
O          2.89857        9.30640        3.74714
C          1.81862        7.76059        2.28721
O          3.02356        7.02971        2.52156
C          1.80176        6.25629        2.52937
C          1.88055        5.27525        1.36111
H          0.43467       -0.96009       -0.99367
H          0.68833       -0.50416        0.69793
H          2.02906       -0.41704       -0.44854
H          0.47492        0.82443       -2.81357
H          0.62597        2.53656       -2.38754
H          2.02856        1.47375       -2.25625
H         -1.22912        1.17095        0.58379
H         -1.31187        2.34238       -0.73263
H         -1.50939        0.62349       -1.07949
H         -0.17665        4.76885        1.38607
H          0.15005        2.65043        2.75707
H          1.84933        3.07779        2.93517
H          0.50082        3.92746        4.80284
H         -0.54059        4.76089        3.67304
H          2.50081        4.70768        5.55066
H          3.40367        4.81783        4.04712
H          3.22395        6.24933        5.06974
H         -0.45077        6.72206        4.22664
H          1.19384        6.11812        6.68663
H         -0.34718        5.45473        6.18042
H         -0.82018        7.01250        7.91010
H         -1.38869        7.72297        6.41352
H          0.94420        7.98810        9.21755
H          2.19819        7.63429        8.01933
H          1.96719        9.28594        8.60580
H          0.14624       11.91481        7.40517
H         -1.32391       10.46318        5.10424
H         -0.60686       12.12443        5.01078
H          1.70901       11.19944        5.51109
H          2.23656        8.99212        6.04941
H         -0.21550        8.69862        4.31538
H          1.10375        9.64627        2.89446
H          3.55947        8.63810        3.48101
H          1.66385        8.14877        1.28897
H          2.86081        4.77978        1.36035
H          1.82414        5.81444        0.40695
