15

O          1.13832       -0.66193       -0.05347
N          2.22855       -0.07289       -0.12435
O          2.75587        0.30622       -1.17912
C          2.93718        0.18507        1.13120
C          4.08020        1.00145        1.10883
C          4.77516        1.25362        2.29509
C          4.33255        0.69142        3.49268
Cl         5.19442        1.00264        4.94823
C          3.19788       -0.11893        3.51869
C          2.49356       -0.37215        2.33975
O          1.39403       -1.17494        2.48075
H          4.44072        1.44685        0.18301
H          5.65979        1.88661        2.27910
H          2.85545       -0.55543        4.45411
H          0.91705       -1.24917        1.62669
