17

O          1.09201       -0.42702       -0.25519
N          2.25354       -0.03221       -0.09684
O          2.97392       -0.26126        0.88308
C          2.85344        0.70349       -1.18494
C          3.87192        0.07337       -1.91629
C          4.47560        0.74915       -2.98838
C          5.57616        0.08007       -3.78155
F          6.68062       -0.15964       -3.02520
F          5.19023       -1.12527       -4.28037
F          5.99850        0.81221       -4.84758
C          4.04281        2.05015       -3.29577
C          3.02881        2.66645       -2.54966
C          2.42520        1.99516       -1.48343
Cl         1.21123        2.82793       -0.58612
H          4.19331       -0.93555       -1.65604
H          4.49763        2.59833       -4.12199
H          2.71896        3.67809       -2.80750
