18

O          0.99108       -0.15139        0.11056
C          2.20084        0.02251        0.14314
O          3.02200       -0.81006        0.82233
C          2.91928        1.14843       -0.57358
C          2.60054        1.18866       -2.04048
C          2.33238        0.13233       -2.82246
N          2.05169        0.27831       -4.15126
C          1.98766        1.48671       -4.78637
O          1.74031        1.58073       -5.98326
N          2.23092        2.57500       -4.00025
C          2.58713        2.53211       -2.68203
O          2.90377        3.54107       -2.06032
H          3.97006       -0.58160        0.79013
H          2.61398        2.06935       -0.06336
H          4.00384        1.05938       -0.44852
H          2.31961       -0.88927       -2.45264
H          1.85135       -0.53182       -4.72790
H          2.21680        3.47631       -4.45051
