30

N          1.28489       -0.04976       -0.17908
S          0.72787        0.05861       -1.75847
O          1.44962       -0.95493       -2.49297
O         -0.71259        0.08749       -1.68138
C          1.29770        1.65750       -2.25063
C          2.18547        1.78537       -3.32119
C          2.53988        3.05943       -3.76625
C          2.02347        4.19348       -3.12457
S          2.37859        5.77937       -3.84088
O          3.60296        6.22688       -3.20344
O          2.32445        5.60216       -5.28160
C          1.10612        6.93872       -3.41113
C         -0.22274        6.79967       -4.15236
C         -1.14454        5.70745       -3.63422
O         -1.29690        5.82838       -2.22684
C          1.21137        4.05888       -1.99870
C          0.81602        2.78662       -1.58162
H          0.49463       -0.17353        0.45471
H          1.98548       -0.78853       -0.11215
H          2.58121        0.90804       -3.82859
H          3.20762        3.16510       -4.62032
H          0.99515        6.96650       -2.32476
H          1.53093        7.91129       -3.69385
H         -0.75338        7.75264       -4.02567
H         -0.06812        6.66846       -5.22826
H         -2.13494        5.78502       -4.09445
H         -0.75738        4.71247       -3.86718
H         -1.72942        6.68116       -2.04376
H          0.83698        4.91954       -1.45469
H          0.11740        2.68454       -0.75358
