20

C          1.04716        0.05288        0.17597
N          0.22417       -0.53982        1.22779
C         -0.46851        0.42849        2.08239
C          0.69549       -1.68978        1.88308
C         -0.13284       -2.39659        2.77389
C          0.29976       -3.55336        3.43390
C          1.58043       -4.04291        3.21243
C          2.41883       -3.37960        2.32508
C          1.97675       -2.22440        1.66632
H          0.48589        0.83218       -0.35208
H          1.32380       -0.69038       -0.58021
H          1.95188        0.51283        0.58873
H         -1.40278        0.02571        2.48531
H          0.17316        0.75192        2.91003
H         -0.74660        1.32089        1.50981
H         -1.15475       -2.07195        2.94706
H         -0.37332       -4.07224        4.11077
H          1.91969       -4.94088        3.72055
H          3.42058       -3.75692        2.13812
H          2.67588       -1.74524        0.98831
