29

C          0.97313        0.10167        0.26973
C          0.56850        1.08379       -0.81946
C          1.07545        0.68819       -2.21100
C          0.54057       -0.65259       -2.76146
C         -1.00376       -0.71954       -2.82768
C         -1.67013        0.33785       -3.69797
C          1.15532       -0.98593       -4.14218
C          2.68217       -1.12538       -4.18485
C          3.23581       -2.16211       -3.22029
H          0.48502       -0.86833        0.13818
H          0.68276        0.48815        1.25182
H          2.05681       -0.05418        0.27505
H         -0.51937        1.20699       -0.82121
H          0.98792        2.06628       -0.57005
H          0.83563        1.49595       -2.91274
H          2.16986        0.65121       -2.15988
H          0.84389       -1.44909       -2.07188
H         -1.29960       -1.70897       -3.19963
H         -1.41724       -0.65100       -1.81490
H         -1.35577        0.25799       -4.74232
H         -2.75717        0.20773       -3.67235
H         -1.45203        1.34954       -3.34480
H          0.71824       -1.92564       -4.50505
H          0.87394       -0.21414       -4.86827
H          2.96927       -1.41145       -5.20418
H          3.15968       -0.15768       -3.99621
H          2.74967       -3.13230       -3.36323
H          4.30991       -2.29298       -3.38625
H          3.10009       -1.85492       -2.17913
