23

O          1.07871        0.44354        0.40338
C          2.20694        0.08726        0.10488
O          2.94998        0.76283       -0.80355
C          2.95320       -1.05608        0.74113
C          2.19100       -1.79354        1.84548
C          0.89915       -2.47915        1.39054
C          1.41852       -3.69200        0.62235
C          2.92209       -3.45032        0.63289
O          3.06493       -2.95247        1.99573
C          3.39466       -2.22337       -0.15452
C          2.98833       -2.17357       -1.59961
O          3.77110       -2.18756       -2.53591
O          1.67553       -2.02815       -1.81141
H          3.87263        0.45963       -0.91044
H          3.84935       -0.61926        1.20612
H          2.09854       -1.23440        2.77997
H          0.24252       -1.84656        0.79034
H          0.32590       -2.82218        2.25982
H          0.97736       -3.81272       -0.36801
H          1.18381       -4.59908        1.19330
H          3.52028       -4.35023        0.47021
H          4.49450       -2.22806       -0.14766
H          1.56794       -1.93858       -2.78348
