28

C          2.49029       -0.43818        0.00089
C          2.27668        0.93671       -0.00562
C          0.98037        1.46108       -0.01949
C         -0.09944        0.56249       -0.02597
S         -1.78668        0.88913       -0.04412
C         -2.12633       -0.79230       -0.02967
S         -3.71705       -1.55186       -0.02086
S         -5.03243        0.02693        0.06408
C         -6.61901       -0.72548       -0.09757
N         -7.67255        0.05947       -0.17176
C         -8.83133       -0.69398       -0.24323
C        -10.14481       -0.18811       -0.31733
C        -11.22819       -1.07116       -0.37576
C        -11.01732       -2.44643       -0.36478
C         -9.72380       -2.97287       -0.29489
C         -8.64436       -2.07601       -0.23257
S         -6.96133       -2.40641       -0.12931
N         -1.06847       -1.57473       -0.02214
C          0.09069       -0.81914       -0.01799
C          1.40689       -1.32291       -0.00523
H          3.50447       -0.83077        0.01128
H          3.12842        1.61409        0.00002
H          0.81527        2.53432       -0.02452
H        -10.30507        0.88565       -0.32411
H        -12.24044       -0.67699       -0.42875
H        -11.86893       -3.12249       -0.40969
H         -9.56059       -4.04637       -0.28475
H          1.56881       -2.39645        0.00066
