39

C          1.03248       -0.25681       -0.31079
C          0.75854       -1.05158        0.95624
C          1.29398       -0.37377        2.22044
C          0.69681        1.00515        2.52850
C         -0.82909        1.04129        2.66507
C         -1.39800        0.09594        3.72482
C         -1.03870        0.46358        5.16830
C         -1.75963        1.69522        5.72795
C         -3.28723        1.63127        5.73203
C         -3.87332        0.84465        6.89245
O         -4.33310        1.44233        7.86998
C         -3.79639       -0.65868        6.90727
C         -4.10492       -1.35218        5.61720
O         -3.32322       -2.12261        5.07181
C         -5.49633       -1.09944        5.02406
O         -6.33123       -0.38997        5.54955
O         -5.70286       -1.72326        3.86246
H          0.49108        0.69376       -0.31326
H          0.70920       -0.82430       -1.18905
H          2.10141       -0.04670       -0.41667
H         -0.31702       -1.23984        1.04530
H          1.23543       -2.03462        0.86198
H          1.13163       -1.04333        3.07341
H          2.38214       -0.26650        2.13169
H          1.15553        1.38377        3.44919
H          0.99143        1.71147        1.74350
H         -1.14195        2.06979        2.87868
H         -1.28196        0.78984        1.69862
H         -2.48351        0.05674        3.59881
H         -1.05514       -0.92623        3.53109
H         -1.24364       -0.39800        5.80856
H          0.04189        0.62571        5.25296
H         -1.40215        1.86702        6.75130
H         -1.45088        2.57267        5.14686
H         -3.66177        2.65811        5.84653
H         -3.71109        1.28120        4.78932
H         -2.79337       -0.94396        7.23838
H         -4.49609       -1.04203        7.65839
H         -6.61904       -1.50388        3.59693
