42

C          0.75155       -0.20044        0.14290
C         -0.04163       -0.79640        1.04644
C         -1.45898       -0.41223        1.30977
C          0.48769       -1.96430        1.78265
O          0.88043       -2.99241        1.24821
O          0.45305       -1.70869        3.11097
C          0.90809       -2.76117        3.98744
C          2.38096       -3.18667        3.81013
O          3.35424       -2.27509        4.35727
C          3.35889       -1.06663        3.72360
C          4.10940       -0.83678        2.57631
C          4.07688        0.43197        1.98138
C          3.27027        1.45855        2.51099
C          3.24463        2.76677        1.78712
O          3.65391        2.82737        0.62822
C          2.70634        4.00449        2.40179
C          1.79112        4.76374        1.66474
C          1.17262        5.86844        2.25145
C          1.47673        6.22160        3.56688
C          2.42832        5.49674        4.28532
C          3.06208        4.40074        3.69675
C          2.49457        1.17692        3.64313
O          1.56275        2.05545        4.11631
C          2.60130       -0.04926        4.28996
H          0.40653        0.64572       -0.44325
H          1.77108       -0.53335       -0.03131
H         -2.09590       -1.30281        1.34415
H         -1.54764        0.11546        2.26400
H         -1.85335        0.23809        0.52145
H          0.76232       -2.38479        5.00694
H          0.23777       -3.61792        3.86006
H          2.51102       -4.10932        4.38851
H          2.64665       -3.42726        2.77779
H          4.71459       -1.62739        2.14093
H          4.66694        0.61244        1.08316
H          1.54154        4.47754        0.64586
H          0.44219        6.44299        1.68808
H          0.97111        7.06365        4.03288
H          2.66139        5.77166        5.31072
H          3.78723        3.83100        4.27111
H          0.98742        1.60599        4.75736
H          2.04530       -0.25360        5.19864
