28

O          0.94060       -0.04567       -0.06622
P          2.48895       -0.04567       -0.06622
O          2.56673        1.20681       -1.15803
O          2.52497        0.96729        1.23490
C          4.31895       -0.04567       -0.06622
O          4.84199        1.31290       -0.27809
C          4.90698       -0.56869        1.26796
C          4.48128       -1.98012        1.57551
C          5.22930       -3.07669        1.13610
C          4.75476       -4.36743        1.35011
C          3.54427       -4.52055        2.00240
N          2.80802       -3.48619        2.45815
C          3.29803       -2.24510        2.26059
P          4.92894       -1.10879       -1.42512
O          4.13071       -0.31779       -2.47184
O          6.41638       -0.42052       -1.37491
O          5.50560       -2.11381       -2.70975
H          2.77540        0.86388       -2.06478
H          1.62312        1.35481        1.28675
H          4.02615        1.84291       -0.44560
H          6.00320       -0.52061        1.23598
H          4.63358        0.08894        2.10184
H          6.18571       -2.94348        0.63148
H          5.31529       -5.23404        1.01651
H          3.12472       -5.50615        2.18560
H          2.67784       -1.44830        2.66703
H          6.35867        0.53859       -1.58375
H          5.49012       -1.55823       -3.51459
