22

Cl         3.40662       -0.14580        0.47672
C          1.73916        0.18173        0.21250
C          0.85216       -0.86982        0.01519
C         -0.49873       -0.60107       -0.21471
Cl        -1.54457       -1.95952       -0.44791
C         -0.96447        0.72450       -0.25160
Cl        -2.63995        1.05939       -0.57640
C         -0.06740        1.79668       -0.03621
C         -0.50088        3.21399       -0.05050
C         -0.31733        4.01187       -1.19807
Cl         0.43252        3.38964       -2.63041
C         -0.73675        5.34240       -1.23003
C         -1.36033        5.90772       -0.11847
Cl        -1.85454        7.56052       -0.25253
C         -1.56026        5.15027        1.04289
Cl        -2.34125        5.86495        2.42128
C         -1.12179        3.81051        1.07686
Cl        -1.32449        2.86519        2.53031
C          1.29014        1.50141        0.19483
H          1.21076       -1.89626        0.03656
H         -0.58138        5.93914       -2.12719
H          2.00434        2.30808        0.35432
