30

C          0.95566        0.04343       -0.07841
C         -0.34819        0.04343       -0.07841
C         -1.86819        0.04343       -0.07841
C         -2.38862       -1.27029       -0.65798
O         -2.32427        0.15250        1.26814
C         -2.40090        1.25477       -0.88305
C         -2.04125        2.66952       -0.36075
C         -0.57607        3.00518       -0.44692
C          0.08066        3.72710       -1.37713
C          1.58807        3.79456       -1.34718
C         -0.57652        4.51170       -2.48613
C         -1.10619        3.65857       -3.62690
H          2.02114        0.05240       -0.08333
H         -2.04014       -2.12555       -0.06663
H         -3.48386       -1.30067       -0.63173
H         -2.06044       -1.41698       -1.69259
H         -1.82145       -0.49744        1.78813
H         -2.07609        1.16562       -1.92759
H         -3.49820        1.20136       -0.88932
H         -2.62511        3.40315       -0.92811
H         -2.36318        2.77549        0.68196
H          0.01499        2.57243        0.35858
H          1.99722        3.45965       -2.30709
H          1.92678        4.81753       -1.15914
H          2.01980        3.15005       -0.57317
H         -1.38654        5.12398       -2.07273
H          0.14756        5.22793       -2.89628
H         -1.95267        3.04522       -3.30738
H         -1.46082        4.30291       -4.43816
H         -0.33250        2.99770       -4.02964
