20

O          1.30475       -0.49417        0.12526
C          0.36768       -0.59517        1.07771
C          0.13227        0.20146        2.20096
N         -0.93328       -0.21748        2.88740
N         -1.35551       -1.33341        2.22229
C         -2.45290       -2.09983        2.70408
C         -3.24714       -1.59222        3.74337
C         -4.33058       -2.33030        4.22466
C         -4.61573       -3.58387        3.68693
C         -3.82306       -4.09965        2.66275
C         -2.74736       -3.35962        2.16374
C         -0.58893       -1.56783        1.09946
H          1.87622        0.27473        0.29136
H          0.67195        1.06989        2.55256
H         -3.04288       -0.61499        4.17742
H         -4.95033       -1.92521        5.02059
H         -5.45414       -4.16075        4.06892
H         -4.03972       -5.08389        2.25445
H         -2.14519       -3.80497        1.37776
H         -0.79337       -2.37528        0.41393
