48

C          1.08524        0.08275        0.15243
C          0.60224       -0.60798        1.42744
C          0.87486        0.16174        2.75954
C          0.20487        1.56063        2.67507
C          0.18241       -0.56512        3.95952
C          0.46278       -2.05478        4.13657
C          2.37299        0.30213        2.99486
C          3.16802        1.47792        3.03186
C          4.46046        1.01957        3.02952
N          5.62688        1.71894        2.86938
C          6.85635        1.22416        2.49847
O          7.73916        2.02132        2.17255
C          7.15115       -0.21448        2.41629
C          7.97997       -0.85052        3.36319
O          8.62174       -0.36688        4.47050
C          8.58437        1.00496        4.81561
C          8.21111       -2.23241        3.23658
C          7.63728       -2.98005        2.21306
C          6.82937       -2.34800        1.27806
C          6.60577       -0.96790        1.34852
O          5.73048       -0.51817        0.39029
C          6.11437        0.65498       -0.31561
O          4.44825       -0.32836        3.15471
N          3.14806       -0.78525        3.11096
H          0.55908        1.02511       -0.02341
H          0.89178       -0.56129       -0.71224
H          2.16057        0.28205        0.18058
H         -0.47596       -0.78778        1.32733
H          1.07941       -1.59525        1.45736
H         -0.86267        1.47378        2.44232
H          0.29365        2.09973        3.62616
H          0.65763        2.19523        1.90546
H          0.44953       -0.05530        4.89494
H         -0.90581       -0.45929        3.85369
H          1.51107       -2.25464        4.36838
H         -0.12751       -2.43981        4.97506
H          0.18087       -2.63181        3.25182
H          2.84991        2.50432        2.93800
H          5.56016        2.72534        2.79619
H          9.12529        1.61077        4.08534
H          7.56156        1.35225        4.98051
H          9.11313        1.11651        5.76800
H          8.84202       -2.73646        3.96767
H          7.81127       -4.05105        2.15513
H          6.35964       -2.93246        0.49036
H          5.60497        1.52519        0.10733
H          7.19746        0.80657       -0.34133
H          5.76181        0.54922       -1.34623
