31

O          1.52354       -0.09873       -0.48342
N          2.71382       -0.00743       -0.16295
N          3.05268       -0.68019        1.03904
C          1.97080       -1.31172        1.79124
C          1.70355       -2.79672        1.50113
Cl         2.88659       -3.62606        0.46614
C          4.40691       -0.70074        1.29816
O          5.23675       -0.11257        0.59437
N          4.96570       -1.37305        2.33252
C          4.53465       -2.10046        3.51967
C          5.26251       -3.44491        3.62820
C          4.81133       -4.20059        4.87687
C          5.02045       -3.37065        6.14108
C          4.36602       -1.99437        6.04017
C          4.78504       -1.25299        4.77279
H          2.14222       -1.13805        2.85587
H          1.03309       -0.76182        1.63257
H          1.65429       -3.35577        2.44136
H          0.72759       -2.91071        1.01904
H          5.96935       -1.23193        2.27666
H          3.47785       -2.32810        3.46570
H          5.05981       -4.05474        2.74011
H          6.34832       -3.28979        3.65997
H          5.36119       -5.14458        4.95785
H          3.74855       -4.45787        4.78245
H          6.09579       -3.24894        6.31907
H          4.61277       -3.90759        7.00514
H          4.62929       -1.39703        6.92054
H          3.27512       -2.10853        6.04721
H          5.85024       -0.99355        4.84009
H          4.23899       -0.30444        4.70378
