22

C          0.75181        0.10934       -0.07243
C          0.58108       -1.39756       -0.05781
O          1.22374       -1.97163        1.06876
S          2.82567       -2.25880        0.99594
O          3.09126       -3.09265       -0.16004
O          3.52338       -1.00157        1.18214
C          3.11401       -3.24687        2.44600
C          3.02661       -4.63961        2.36049
C          3.26110       -5.41100        3.49852
C          3.58684       -4.79267        4.70734
C          3.68425       -3.40192        4.78375
C          3.45120       -2.62259        3.65089
H          0.49076        0.53976        0.89967
H          0.12324        0.56271       -0.84404
H          1.79086        0.38326       -0.27807
H         -0.48438       -1.63587        0.02604
H          0.93989       -1.84641       -0.99011
H          2.77868       -5.12681        1.42009
H          3.19322       -6.49499        3.44426
H          3.76995       -5.39743        5.59261
H          3.94470       -2.92674        5.72662
H          3.53327       -1.53972        3.71488
