76

C         -0.89901        0.39027       -0.14523
C          0.03660        1.51776        0.22210
O          0.36918        2.33308       -0.64506
C          0.45414        1.69477        1.66044
N          0.00379        0.56270        2.49428
N         -1.09713        0.76952        3.05131
C         -1.36347       -0.27704        3.95386
C         -2.27392       -1.28000        3.59790
C         -2.55456       -2.33842        4.47372
C         -1.93653       -2.41557        5.73180
C         -2.19497       -3.52326        6.66765
C         -2.49370       -3.26340        8.01323
C         -2.65966       -4.30586        8.92987
C         -2.59582       -5.64848        8.52868
N         -2.78722       -6.69662        9.45888
N         -3.82289       -6.51208       10.13910
C         -3.97208       -7.46230       11.25702
C         -3.15462       -6.98492       12.45214
C         -3.48605       -7.52962       13.82128
O         -2.15929       -6.26047       12.33614
C         -5.46043       -7.69178       11.53321
O         -5.93313       -8.83180       11.42014
N         -6.31067       -6.72379       12.01945
C         -5.94932       -5.43175       12.42085
C         -5.93057       -5.14758       13.78971
C         -5.43605       -3.92460       14.24097
C         -4.99390       -2.97507       13.32424
C         -5.13209       -3.21217       11.95663
C         -5.65524       -4.42750       11.48996
C         -6.07116       -4.52246       10.04578
C         -2.28080       -5.91060        7.18846
Cl        -2.09495       -7.53277        6.61750
C         -2.08691       -4.86513        6.27019
C         -1.04116       -1.39319        6.08865
C         -0.76378       -0.33623        5.21922
Cl         0.34039        0.88201        5.75670
C          1.94719        1.88667        1.90935
O          2.36509        2.94983        2.39063
N          2.87448        0.88532        1.73260
C          2.62904       -0.43222        1.32604
C          2.72439       -1.44567        2.28642
C          2.48433       -2.77403        1.93337
C          2.17177       -3.09642        0.61602
C          2.14772       -2.09733       -0.35694
C          2.40711       -0.75778       -0.02107
C          2.59931        0.22010       -1.14938
H         -1.91878        0.65062        0.14671
H         -0.59826       -0.54534        0.33078
H         -0.86241        0.23048       -1.22686
H         -0.04020        2.61608        2.00268
H         -2.76469       -1.24020        2.62787
H         -3.27080       -3.09823        4.16369
H         -2.59304       -2.23870        8.36888
H         -2.85180       -4.06748        9.97435
H         -3.55609       -8.43861       10.96920
H         -2.68710       -8.19739       14.15081
H         -3.57188       -6.69139       14.51856
H         -4.42554       -8.08335       13.83226
H         -7.09526       -7.15601       12.49684
H         -6.24754       -5.88848       14.51925
H         -5.37939       -3.71761       15.30672
H         -4.57903       -2.03260       13.67313
H         -4.85629       -2.42945       11.25320
H         -6.27137       -5.54746        9.72331
H         -6.99273       -3.94815        9.90299
H         -5.30947       -4.10578        9.38555
H         -1.82061       -5.10598        5.24272
H         -0.54000       -1.42459        7.05449
H          3.66361        1.03672        2.35249
H          2.95918       -1.20873        3.32141
H          2.54512       -3.55743        2.68467
H          1.98472       -4.13048        0.33677
H          1.96462       -2.37315       -1.39404
H          2.69097        1.25291       -0.80637
H          3.52227       -0.02203       -1.68651
H          1.76041        0.16641       -1.85047
