29

C          0.94082       -0.05775       -0.21192
C          0.48391       -0.26970        1.23730
C          1.07857        0.72810        2.21853
C          2.25830        1.62567        1.92369
C          0.88146        2.21572        2.05007
C         -1.07050       -0.30296        1.33421
O         -1.61326       -1.26478        0.42495
C         -1.57205       -0.65980        2.72253
C         -2.03246        0.34784        3.58624
C         -2.45223        0.03774        4.88201
C         -2.42025       -1.28299        5.32258
Cl        -2.92986       -1.66229        6.92179
C         -1.97462       -2.29715        4.47874
C         -1.55030       -1.98559        3.18494
H          0.60382        0.90742       -0.60348
H          0.55625       -0.84262       -0.87099
H          2.03217       -0.09505       -0.28992
H          0.86449       -1.26001        1.52440
H          1.02920        0.33840        3.23363
H          2.96231        1.80827        2.72962
H          2.71960        1.63440        0.94487
H          0.41181        2.59380        1.14987
H          0.66051        2.79916        2.93763
H         -1.48541        0.67196        1.04769
H         -1.63358       -0.84983       -0.45293
H         -2.05503        1.38469        3.25802
H         -2.79793        0.82968        5.54072
H         -1.95330       -3.32876        4.81820
H         -1.20535       -2.78312        2.52897
