43

C         -0.23123        0.20251       -0.46754
N         -0.47697        1.23800        0.52028
C         -1.88184        1.28368        0.90373
C          0.43476        1.28206        1.66953
C          0.75276        0.01547        2.48858
C          1.58114       -1.11045        1.83589
N          3.03239       -1.10087        2.13297
C          3.61412       -2.32733        2.54113
C          3.22748       -3.55169        1.96394
C          3.85169       -4.75043        2.31705
C          4.87626       -4.74900        3.25764
C          5.28324       -3.54806        3.83822
C          4.66981       -2.34059        3.47686
S          5.23519       -0.82693        4.25253
C          4.81060        0.35149        2.97313
C          5.51827        1.55930        2.92082
C          5.26637        2.48184        1.90553
C          4.33301        2.18912        0.90526
C          4.08246        3.17363       -0.21084
F          3.59549        4.36088        0.24570
F          5.21615        3.47689       -0.90192
F          3.18758        2.73448       -1.13884
C          3.62800        0.97514        0.97315
C          3.79401        0.07648        2.03660
H         -0.80261        0.40001       -1.38123
H         -0.52276       -0.79024       -0.10716
H          0.81936        0.18642       -0.77375
H         -2.18156        0.40800        1.48726
H         -2.09079        2.18651        1.48797
H         -2.52011        1.34248        0.01425
H          1.35292        1.75520        1.33048
H          0.03651        2.02115        2.37985
H          1.24488        0.32738        3.42013
H         -0.21002       -0.40998        2.80239
H          1.14874       -2.02362        2.27044
H          1.43765       -1.20746        0.76232
H          2.46324       -3.58175        1.19159
H          3.54659       -5.68079        1.84438
H          5.36605       -5.67982        3.53111
H          6.09015       -3.55752        4.56682
H          6.27442        1.78488        3.66946
H          5.81765        3.42061        1.88461
H          2.93480        0.72706        0.17130
