22

Cl         2.60611        1.68195       -0.46885
C          1.18151        0.73577       -0.21159
C         -0.00456        1.42655        0.03271
C         -1.18861        0.72630        0.25950
Cl        -2.61588        1.66168        0.54043
C         -1.19341       -0.67776        0.25279
Cl        -2.67150       -1.54355        0.56642
C         -0.00060       -1.39933       -0.00341
C          0.00189       -2.88846       -0.02388
C         -0.36601       -3.59948       -1.19364
Cl        -0.81330       -2.72066       -2.62910
C         -0.36671       -5.00350       -1.20282
Cl        -0.82818       -5.92601       -2.59097
C          0.01301       -5.71426       -0.06514
C          0.38650       -5.03403        1.09309
Cl         0.85632       -5.99301        2.45345
C          0.37439       -3.63038        1.12503
Cl         0.81425       -2.79027        2.58571
C          1.19025       -0.66793       -0.24064
Cl         2.67097       -1.52113       -0.57612
H         -0.00613        2.51505        0.04637
H          0.01797       -6.80271       -0.08126
