26

C          1.36287       -0.22142        0.17925
C          0.89972        1.08254        0.02476
C         -0.47035        1.33115       -0.11318
C         -1.39442        0.27920       -0.12617
N         -2.79483        0.48664       -0.20363
N         -3.36363        1.59590       -0.77434
C         -4.71237        1.96361       -0.55313
C         -5.20169        3.13756       -1.14446
C         -6.54491        3.50236       -1.01626
C         -7.42293        2.68594       -0.30863
C         -6.95921        1.50340        0.26263
C         -5.61536        1.14026        0.13035
C         -0.91249       -1.02419        0.07284
C          0.45559       -1.27589        0.21098
H          2.42680       -0.41350        0.28939
H          1.60242        1.91166        0.02239
H         -0.79657        2.36192       -0.19645
H         -3.26457       -0.37845       -0.47675
H         -2.77081        2.41900       -0.85908
H         -4.53752        3.77646       -1.72051
H         -6.90500        4.41863       -1.47649
H         -8.46805        2.96656       -0.20894
H         -7.64160        0.85875        0.81002
H         -5.27843        0.21399        0.58576
H         -1.60336       -1.86205        0.11852
H          0.80897       -2.29409        0.35049
