35

C          1.15208       -0.19326        0.21790
C          0.61221       -0.93553       -0.99170
N          0.72720       -2.38054       -0.83675
C         -0.09394       -3.19959       -0.11478
S          0.61990       -4.54261        0.58746
N         -1.42209       -2.84746       -0.00859
C         -2.28231       -3.34666        1.07958
C         -3.38703       -2.33583        1.41779
N         -4.10432       -1.86879        0.23061
C         -5.41797       -1.46398        0.36708
O         -6.06357       -1.57612        1.40268
O         -5.92207       -0.95346       -0.78817
C         -7.31084       -0.59638       -0.76529
C         -8.17542       -1.83032       -0.95229
C         -3.27278       -1.47194       -0.91057
C         -2.19392       -2.51520       -1.21645
H          0.59558       -0.45551        1.12344
H          1.06820        0.88753        0.06556
H          2.20616       -0.43475        0.38759
H         -0.42290       -0.63471       -1.14968
H          1.18497       -0.66658       -1.88462
H          1.67883       -2.73153       -0.85321
H         -2.72402       -4.29387        0.74405
H         -1.69203       -3.54638        1.97901
H         -2.94523       -1.44867        1.88803
H         -4.08417       -2.77815        2.13742
H         -7.56481       -0.05600        0.15366
H         -7.47404        0.09273       -1.60046
H         -8.06958       -2.51752       -0.10687
H         -9.22969       -1.55567       -1.04386
H         -7.87148       -2.38157       -1.84824
H         -2.80877       -0.51552       -0.63995
H         -3.88023       -1.30191       -1.80392
H         -1.55250       -2.19306       -2.04079
H         -2.66768       -3.44669       -1.55392
