44

C          1.73646       -0.16312        0.59244
C          0.28533       -0.56613        0.62639
C         -0.11229       -1.81585        0.16401
C         -1.47235       -2.09374       -0.00218
C         -2.44126       -1.09328        0.18235
C         -2.06922        0.16215        0.64933
N         -2.87309        1.34691        0.49618
C         -4.24192        1.53539        0.14258
C         -5.13218        0.97997        1.10040
C         -6.48337        1.26899        1.07293
N         -7.03769        2.05659        0.14982
C         -6.19494        2.58942       -0.76494
C         -4.79870        2.41082       -0.83470
S         -4.24897        3.47964       -2.18890
O         -4.88179        2.91030       -3.36556
O         -4.59907        4.82558       -1.77494
N         -2.64197        3.52088       -2.65257
C         -1.84240        4.68215       -2.46801
O         -1.38104        5.29255       -3.40145
N         -1.40319        4.91402       -1.17959
C         -1.40188        3.78741       -0.29844
C         -0.51233        2.68896       -0.90365
C         -1.26356        4.12251        1.17948
C         -0.71026        0.34782        1.00388
H          2.29998       -0.59753        1.42031
H          2.18949       -0.47943       -0.35670
H          1.85043        0.92701        0.62689
H          0.63170       -2.55919       -0.11574
H         -1.77061       -3.07512       -0.36210
H         -3.47332       -1.30805       -0.07213
H         -2.68516        1.91298        1.32842
H         -4.75667        0.36756        1.91707
H         -7.16262        0.88909        1.82917
H         -6.71427        3.23808       -1.47451
H         -2.64570        3.30134       -3.65160
H         -0.60525        5.53774       -1.15771
H         -2.42704        3.44931       -0.34491
H         -1.10571        1.79277       -1.11093
H         -0.11707        2.93287       -1.89537
H          0.34202        2.44750       -0.28064
H         -0.97999        5.16065        1.35483
H         -2.24324        3.99403        1.66889
H         -0.57827        3.45450        1.70224
H         -0.38740        1.29632        1.42016
