27

C          1.07299       -0.04157       -0.09259
C          0.53543        0.77653        1.07567
C          0.79389        2.29747        0.96559
C          0.07768        2.87155       -0.27080
N          0.47556        3.11356        2.17356
C         -0.27408        2.62236        3.22652
O         -0.76043        1.49811        3.32052
N         -0.48498        3.47296        4.27393
C         -0.10861        4.78729        4.33184
C         -0.57029        5.51304        5.56651
C          0.59868        5.31333        3.32046
Br         1.13222        7.10412        3.21570
C          1.01496        4.40431        2.20004
O          1.80842        4.81037        1.34827
H          0.54703        0.18684       -1.02392
H          0.92745       -1.10890        0.10576
H          2.14228        0.13441       -0.23983
H         -0.54149        0.58120        1.14528
H          1.00609        0.39250        1.98849
H          1.87332        2.42137        0.80145
H         -1.00538        2.73246       -0.19733
H          0.26080        3.94338       -0.39392
H          0.42742        2.39348       -1.19093
H         -1.02301        3.06319        5.03072
H         -1.65301        5.39851        5.69145
H         -0.07953        5.09247        6.45132
H         -0.36169        6.58506        5.55429
