30

C          1.08679        0.27237        0.31812
C          0.68216        0.41149       -1.14090
C          1.19207       -0.73351       -2.01804
C          0.59137       -2.11077       -1.71306
C         -0.90816       -2.24486       -2.00382
C         -1.28650       -2.12672       -3.48055
O         -0.78742       -3.25882       -4.21303
C          0.33957       -3.07378       -4.95573
O          0.92502       -2.00687       -5.08991
C          0.74791       -4.36678       -5.67598
C          0.35820       -5.63106       -4.92043
O          0.21506       -4.43330       -6.99444
H          0.60638       -0.59039        0.78800
H          0.78906        1.16482        0.87747
H          2.17160        0.16010        0.41420
H         -0.40620        0.50393       -1.21656
H          1.10005        1.34980       -1.52574
H          1.00934       -0.46806       -3.06351
H          2.28203       -0.80165       -1.91198
H          1.14002       -2.86685       -2.28670
H          0.76614       -2.36081       -0.66045
H         -1.22409       -3.23331       -1.64607
H         -1.47001       -1.50518       -1.42410
H         -2.37824       -2.16506       -3.56756
H         -0.97524       -1.17300       -3.91835
H          1.84100       -4.34768       -5.75683
H         -0.72990       -5.75921       -4.89503
H          0.76253       -6.51512       -5.42497
H          0.72880       -5.61313       -3.89068
H         -0.75170       -4.34989       -6.92095
