24

C          1.19085        0.12861       -0.31241
C          0.55639       -1.15828       -0.82672
C          1.02003       -2.41768       -0.08967
C          0.50254       -2.52751        1.30631
N          0.15077       -1.55268        2.10920
C         -0.22260       -2.12702        3.32187
C         -0.66410       -1.29111        4.43929
O         -1.04555       -1.65103        5.54405
O         -0.63263        0.03985        4.17379
C         -0.08867       -3.50815        3.23244
C         -0.30156       -4.60783        4.12029
O         -0.13874       -5.78741        3.84405
O         -0.70248       -4.23878        5.34099
N          0.36357       -3.72765        1.94571
H          0.84400        0.38285        0.69260
H          0.92370        0.96462       -0.96679
H          2.28213        0.05021       -0.28990
H         -0.53570       -1.06940       -0.78423
H          0.82582       -1.26429       -1.88482
H          0.67891       -3.29061       -0.66099
H          2.11549       -2.45907       -0.07102
H         -0.95073        0.44053        5.00491
H         -0.81219       -5.07020        5.84202
H          0.56984       -4.63922        1.55731
