23

C          2.47973       -0.09076       -0.10086
C          0.98013        0.01833       -0.04213
C          0.25435       -1.18738        0.00517
C         -1.14171       -1.19216        0.04038
C         -1.83685        0.01764        0.01596
S         -3.61381       -0.00676        0.05239
C         -4.06159       -0.72155       -1.50865
O         -3.99590       -0.92703        1.10663
O         -4.06867        1.36855        0.05671
C         -1.15214        1.23327        0.00193
C          0.25305        1.22603       -0.01391
N          0.91852        2.52901        0.00837
O          0.44850        3.41250       -0.72214
O          1.88168        2.67302        0.77222
H          2.86651       -0.43744        0.86293
H          2.76595       -0.81330       -0.87405
H          2.97774        0.84407       -0.36427
H          0.78330       -2.14059        0.02016
H         -1.67269       -2.14077        0.09805
H         -3.67876       -1.74243       -1.56100
H         -5.15177       -0.73478       -1.57391
H         -3.64880       -0.10991       -2.31297
H         -1.70052        2.17476        0.01721
