32

C          0.98552        0.16059       -0.02261
C          0.51274        1.26456        0.88244
O         -0.30153        2.10416        0.50573
N          1.03182        1.33357        2.13989
C          1.77333        0.29814        2.87223
C          3.05944        0.85504        3.50023
C          2.84350        1.96850        4.48550
C          2.44978        1.82912        5.80317
N          2.36993        3.07415        6.36487
C          2.73186        4.03257        5.44897
C          2.82076        5.42270        5.58987
C          3.23213        6.16179        4.47772
C          3.53272        5.53367        3.27206
C          3.43174        4.14279        3.14680
C          3.02958        3.37128        4.25690
C          0.92278       -0.38629        3.94663
O          1.26524       -1.35048        4.61706
O         -0.27702        0.19084        4.16217
H          0.60570        0.33267       -1.03421
H          0.60747       -0.80160        0.33213
H          2.07792        0.14903       -0.06785
H          0.59876        2.05549        2.70900
H          2.04468       -0.49511        2.16882
H          3.60392        0.04636        4.00515
H          3.71869        1.20969        2.69768
H          2.22017        0.94900        6.39025
H          2.10129        3.26838        7.31948
H          2.58573        5.91511        6.52772
H          3.31776        7.24322        4.55602
H          3.84947        6.12736        2.41804
H          3.66745        3.66838        2.19893
H         -0.66936       -0.32192        4.89884
