23

C          1.02535       -0.05518        0.05412
C          0.61033        1.19400       -0.66413
C         -0.11022        1.16572       -1.78773
C         -0.53937        2.37611       -2.49916
O         -1.19151        2.24666       -3.53421
C         -0.23610        3.73539       -1.93205
C          0.77294        3.80532       -0.77536
C          2.13059        4.31031       -1.30033
C          0.24670        4.80501        0.27333
C          1.04483        2.48019       -0.05910
O          1.66831        2.44803        1.00379
H          0.65314       -0.95652       -0.44483
H          0.63508       -0.06031        1.07717
H          2.11730       -0.12798        0.09511
H         -0.43278        0.23111       -2.23584
H         -1.20548        4.14394       -1.61826
H          0.10649        4.35861       -2.76857
H          2.03627        5.29942       -1.76305
H          2.86670        4.39610       -0.49196
H          2.54636        3.62377       -2.04642
H         -0.68417        4.44086        0.72464
H          0.96313        4.95528        1.08895
H          0.04581        5.78382       -0.17632
