53

C          0.97525        0.22700       -0.33706
C          0.68225       -1.23589       -0.63370
C          1.13869       -2.17759        0.48369
C          0.46873       -1.93969        1.84208
C         -1.05391       -2.12034        1.84769
C         -1.52622       -3.53345        1.48877
C         -1.05751       -4.61863        2.46507
C         -1.64625       -4.50301        3.87810
C         -3.17842       -4.60034        3.94680
C         -3.74496       -5.93904        3.42674
C         -3.45833       -7.08055        4.40468
C         -5.23659       -5.82502        3.19553
C         -5.92556       -6.08425        2.05920
C         -7.40882       -5.85569        2.10738
C         -8.29806       -6.31470        0.97777
O         -7.93161       -5.31589        3.08803
C         -5.22941       -6.60174        0.85645
O         -4.40328       -7.50305        0.87634
O         -5.64037       -5.93041       -0.24795
C         -5.09726       -6.37621       -1.50359
C         -4.15555       -5.31601       -2.03577
H          0.40321        0.58573        0.52368
H          0.70318        0.84853       -1.19554
H          2.03986        0.37757       -0.13156
H         -0.38745       -1.36349       -0.83198
H          1.20200       -1.51588       -1.55771
H          0.97191       -3.21255        0.16314
H          2.22367       -2.07636        0.61050
H          0.92431       -2.61177        2.57800
H          0.70325       -0.92927        2.19525
H         -1.43550       -1.84490        2.83752
H         -1.51187       -1.40869        1.15134
H         -2.62022       -3.53494        1.42430
H         -1.18064       -3.79272        0.48175
H         -1.29774       -5.59859        2.03962
H          0.03521       -4.60943        2.53916
H         -1.20109       -5.28292        4.50628
H         -1.33585       -3.55252        4.32773
H         -3.48537       -4.45243        4.99123
H         -3.61697       -3.76215        3.39164
H         -3.25265       -6.17585        2.48394
H         -3.85958       -6.86529        5.40158
H         -3.90598       -8.01791        4.05695
H         -2.38193       -7.25157        4.50604
H         -5.78874       -5.47633        4.07034
H         -9.02901       -7.02517        1.37411
H         -8.81864       -5.44316        0.56940
H         -7.76943       -6.81540        0.16918
H         -4.58547       -7.34209       -1.42777
H         -5.93689       -6.51077       -2.19386
H         -3.34370       -5.12807       -1.32611
H         -3.72631       -5.62173       -2.99422
H         -4.68688       -4.36889       -2.17500
