15

N          0.93880       -0.05004       -0.27837
C          0.30437        1.02623       -0.85385
O         -0.89549        1.19555       -0.67488
C          1.15228        1.96389       -1.66011
C          2.22889        1.48555       -2.40239
C          2.98707        2.39906       -3.13055
C          2.64791        3.74760       -3.09511
C          1.55669        4.13261       -2.33270
N          0.80335        3.27432       -1.61460
H          0.37500       -0.58146        0.37377
H          1.94032       -0.06603       -0.14785
H          2.46244        0.42773       -2.44072
H          3.82925        2.06161       -3.72861
H          3.21601        4.48291       -3.65483
H          1.24960        5.17356       -2.27846
