21

C          1.09761       -0.03715        0.12891
N          0.30671       -0.47810        1.25469
C         -0.43810        0.28536        2.11782
O         -0.84678       -0.19336        3.17168
C         -0.73878        1.69621        1.78959
C         -1.26313        2.06015        0.54701
C         -1.54671        3.40329        0.28079
C         -1.36640        4.38131        1.26432
N         -1.52935        5.73500        0.94790
C         -0.80746        4.00927        2.49074
C         -0.52242        2.66939        2.76775
H          1.38724        1.01077        0.23140
H          0.51508       -0.18364       -0.78378
H          1.99695       -0.65672        0.08268
H          0.43450       -1.42891        1.58084
H         -1.45646        1.30946       -0.21354
H         -1.92071        3.67985       -0.70158
H         -1.68468        6.32740        1.75817
H         -2.21146        5.90555        0.21542
H         -0.59569        4.76027        3.24736
H         -0.11977        2.38848        3.73814
