84

C          0.55977        0.27691       -0.07536
O         -0.03868        0.50426        1.19972
C          0.53143       -0.14868        2.25814
C         -0.11808       -0.02220        3.48995
C          0.40047       -0.62110        4.65243
C          1.57706       -1.38308        4.60190
C          2.16406       -2.07342        5.87439
O          2.09239       -1.18891        7.03833
C          2.92077       -0.03974        7.25041
C          4.32362       -0.37434        7.77029
O          5.07995        0.63251        8.50128
C          6.29579       -0.10623        8.83137
N          7.04898        0.37658        9.97183
C          6.78470        1.40829       10.82793
N          7.69235        1.49427       11.79097
C          8.58714        0.47260       11.54539
C          9.77345        0.00783       12.28128
O         10.16322        0.53913       13.31057
N         10.43119       -1.10205       11.72234
C         10.00938       -1.64961       10.62138
N         10.78855       -2.72609       10.20233
C         10.91897       -3.59278        9.12488
O         11.79855       -4.45739        9.16786
C         10.00825       -3.50639        7.91293
C          8.61858       -4.04338        8.24804
C         10.05726       -2.12677        7.25123
N          8.90683       -1.22617        9.91949
C          8.21712       -0.18455       10.40932
C          5.89220       -1.57966        8.98459
C          4.41746       -1.58218        8.68642
O          3.69528       -1.40035        9.89776
C          1.20544       -3.26333        6.25379
C          0.62285       -3.37390        7.53543
C         -0.13097       -4.49401        7.89959
C         -0.32256       -5.53064        6.99279
C          0.21158       -5.43470        5.71112
C          0.95392       -4.30901        5.33920
C          3.62787       -2.59998        5.65044
C          4.05487       -3.88349        6.04217
C          5.35721       -4.32855        5.78348
C          6.28065       -3.50450        5.14302
O          7.52387       -4.04249        4.96985
C          8.49824       -3.20520        4.35946
C          5.89240       -2.22921        4.75735
C          4.59040       -1.79113        5.00642
C          2.15140       -1.57064        3.32474
C          1.67750       -0.92375        2.18551
H         -0.02277        0.81583       -0.82751
H          0.53850       -0.78706       -0.33860
H          1.58396        0.66637       -0.10719
H         -1.04577        0.54292        3.54615
H         -0.14218       -0.51138        5.58976
H          2.96216        0.57630        6.34557
H          2.41393        0.57551        8.00315
H          4.93800       -0.52156        6.88696
H          6.96964        0.01774        7.97134
H          5.92472        2.05671       10.71583
H         11.51525       -2.91765       10.88426
H         10.42133       -4.20050        7.16616
H          8.27063       -3.76393        9.24579
H          7.87729       -3.71818        7.51889
H          8.62867       -5.13947        8.23378
H         10.53635       -2.20409        6.26847
H          9.06131       -1.70400        7.08645
H         10.65589       -1.40199        7.81114
H          8.58639       -1.76064        9.13351
H          6.12100       -2.00874        9.96434
H          6.42690       -2.15602        8.22366
H          4.10318       -2.52948        8.25864
H          2.74774       -1.42965        9.67032
H          0.75482       -2.59323        8.28073
H         -0.55878       -4.55951        8.89744
H         -0.88929       -6.41125        7.28460
H          0.06215       -6.24471        5.00157
H          1.37317       -4.27658        4.33586
H          3.38941       -4.57216        6.56087
H          5.64824       -5.33193        6.08901
H          8.26375       -3.03864        3.30448
H          8.58982       -2.24978        4.88479
H          9.46539       -3.71091        4.42592
H          6.56748       -1.54294        4.25762
H          4.33208       -0.77957        4.68898
H          3.00098       -2.23174        3.17224
H          2.22864       -1.06505        1.26206
