23

Cl        -1.91156       -1.76776       -0.01098
C         -0.66328       -0.57501        0.02768
C          0.61516       -0.98314        0.41586
C          1.67319       -0.06497        0.48248
Cl         3.17546       -0.70017        1.05196
C          1.45451        1.27590        0.13344
O          2.33898        2.33554        0.15500
C          3.69177        2.12707        0.01534
C          4.26076        1.72774       -1.20700
Cl         3.25331        1.46990       -2.59514
C          5.65104        1.56583       -1.29305
Cl         6.43902        1.05033       -2.74376
C          6.46369        1.82844       -0.18655
C          5.89956        2.26868        1.01218
Cl         6.97614        2.59548        2.32421
C          4.51359        2.43201        1.11713
Cl         3.78795        2.98877        2.59232
C          0.16119        1.67656       -0.24297
C         -0.89333        0.76174       -0.29800
Cl        -2.44808        1.35054       -0.76355
H          0.78520       -2.02479        0.68288
H          7.54204        1.70014       -0.26228
H         -0.01948        2.72091       -0.49397
