66

C          2.19381        0.98855       -0.82593
C          1.72819        1.04804       -2.27557
C          1.52728       -0.31623       -2.93114
C          0.28126       -1.11669       -2.55657
O         -0.87879       -0.35409       -2.27113
C         -1.04141        0.11901       -0.92643
C         -0.95191       -0.96203        0.14999
O          0.30088       -1.14177        0.80171
C          0.87506       -2.45672        0.77832
C          0.05758       -3.68149        1.24393
O         -1.30609       -3.66846        0.79545
C         -2.20961       -3.22699        1.69527
O         -1.97728       -3.11197        2.89702
C         -3.57025       -2.86218        1.12241
C         -3.88172       -2.33985       -0.29036
C         -3.48235       -2.96536       -1.61837
O         -4.17651       -2.82013       -2.62018
O         -2.33536       -3.67721       -1.59584
C         -2.12733       -4.54833       -2.71774
C         -2.50750       -6.01911       -2.43946
O         -3.69856       -6.34102       -1.70660
C         -3.87871       -5.71466       -0.44100
C         -4.10453       -6.61832        0.77051
O         -2.92735       -6.89893        1.54122
C         -1.80561       -7.41994        0.84912
C         -1.77671       -8.93761        0.67750
C         -3.10751       -9.66626        0.50598
C         -3.73574       -9.51529       -0.87400
H          2.19055       -0.02667       -0.42493
H          1.56535        1.61798       -0.18630
H          3.21218        1.37735       -0.73668
H          0.81661        1.64814       -2.36939
H          2.48853        1.59006       -2.84869
H          1.47804       -0.14425       -4.01326
H          2.41154       -0.94654       -2.77102
H          0.02898       -1.75255       -3.41573
H          0.48992       -1.82991       -1.76968
H         -0.40595        0.97235       -0.72045
H         -2.07021        0.49945       -0.91502
H         -1.64972       -0.68880        0.94773
H         -1.26271       -1.87030       -0.34061
H          1.27064       -2.65355       -0.21940
H          1.76828       -2.40393        1.41312
H          0.52206       -4.57746        0.81037
H          0.13654       -3.80761        2.32840
H         -4.24500       -3.68459        1.37340
H         -3.88293       -2.02772        1.77110
H         -4.98237       -2.37926       -0.33362
H         -3.63312       -1.27774       -0.35883
H         -2.62585       -4.18620       -3.62245
H         -1.05278       -4.51813       -2.94348
H         -2.61197       -6.51561       -3.41217
H         -1.65809       -6.52264       -1.97511
H         -3.02080       -5.11417       -0.18479
H         -4.77193       -5.09285       -0.55712
H         -4.73933       -6.06289        1.47180
H         -4.65043       -7.52204        0.52615
H         -1.65058       -6.91132       -0.09358
H         -0.92200       -7.13924        1.43781
H         -1.10065       -9.18507       -0.15108
H         -1.30400       -9.34782        1.57820
H         -2.93324      -10.73404        0.67871
H         -3.80790       -9.35955        1.29038
H         -3.73890      -10.47521       -1.39817
H         -4.78271       -9.20220       -0.79585
H         -3.20439       -8.79716       -1.50123
