36

C          1.38278        0.95211        0.19796
N          0.57058        0.76290       -1.00601
C         -0.57760        1.66084       -1.21303
C         -1.92796        1.17725       -0.50531
O         -2.59687        2.00115        0.13790
N         -2.34226       -0.17966       -0.39478
C         -2.77646       -0.86212       -1.60723
C         -1.79891       -2.30502       -2.03841
C         -0.87881       -2.39740       -3.57668
C         -1.05738       -0.99142       -4.70388
C         -2.36546        0.43384       -4.14975
N         -3.14400        0.39525       -2.65207
C         -0.43041        2.05215       -2.74598
O         -0.37360        3.20694       -3.15965
C         -0.35142        0.92643       -3.76498
C         -0.78269        1.18263       -5.46109
C         -2.05312        0.24755       -6.31808
C         -3.03812       -1.00267       -5.52942
C         -2.68168       -1.37610       -3.79276
C         -1.14968       -0.37775       -2.91544
S          0.37617       -0.77856       -1.61333
O          1.53960       -1.06859       -2.42354
O          0.01215       -1.60135       -0.48104
H          1.47039        0.03329        0.78456
H          0.95991        1.71375        0.85936
H          2.38858        1.26738       -0.09473
H         -0.34097        2.60519       -0.69813
H         -3.14178       -0.15431        0.23326
H         -1.61800       -3.06433       -1.27458
H         -0.20372       -3.21836       -3.79777
H         -0.45235       -1.07803       -5.61729
H         -2.76606        1.34177       -4.64093
H         -0.42382        2.09612       -5.94216
H         -2.29463        0.52646       -7.34507
H         -3.82018       -1.53563       -6.06132
H         -3.30415       -2.22282       -3.45739
