21

C          2.52754       -0.10895        0.00222
C          1.02946       -0.02665       -0.00354
C          0.26696       -1.19809       -0.01560
C         -1.12687       -1.12976       -0.02413
C         -1.77832        0.11276       -0.02078
S         -3.55930        0.04847       -0.03436
O         -3.90474       -0.61631       -1.28216
O         -3.92492       -0.59231        1.22005
C         -4.33172        1.65540       -0.05811
I         -3.96700        2.84842        1.66618
I         -3.90929        2.82475       -1.78506
C         -1.02370        1.28333       -0.00825
C          0.37471        1.21007       -0.00037
H          2.87177       -0.65893        0.88398
H          2.88021       -0.61775       -0.90064
H          2.98457        0.88572        0.02805
H          0.75359       -2.17140       -0.01867
H         -1.70482       -2.05322       -0.03347
H         -5.40509        1.42812       -0.07406
H         -1.46049        2.27201       -0.00435
H          0.95243        2.13300        0.00834
