65

O          2.57272        0.43795       -1.86213
C          1.57324        0.05734       -1.26532
O          0.40838        0.79330       -1.37773
C         -0.81350        0.30310       -0.91326
C         -1.93172        1.11054       -1.12285
C         -3.17753        0.66503       -0.69854
C         -3.28870       -0.58106       -0.08287
C         -2.14968       -1.36861        0.13259
C         -0.88492       -0.92347       -0.27100
C          0.35867       -1.66589       -0.03088
O          0.17066       -2.85746        0.63870
C          1.55520       -1.19001       -0.44379
C          2.90689       -1.90090       -0.24168
C          3.77854       -1.30382        0.90097
C          5.11618       -0.62185        0.51691
C          4.95797        0.87405        0.27673
C          5.05351        1.45750       -0.98814
C          4.57991        2.75417       -1.20340
C          4.04010        3.49240       -0.15309
O          3.26657        4.54830       -0.54393
C          2.35201        5.15011        0.37932
C          1.11064        4.38397        0.83882
C         -0.00357        5.11089        1.29209
C         -1.10092        4.46866        1.88461
C         -1.10088        3.08105        2.07339
C         -2.24611        2.38946        2.76807
F         -2.35851        2.76548        4.07348
F         -3.45256        2.66223        2.19750
F         -2.13965        1.03094        2.78771
C         -0.00326        2.35388        1.61428
C          1.05850        2.99280        0.96834
C          4.19574        3.02687        1.14823
C          4.62265        1.71018        1.35744
C          5.85263       -1.43829       -0.55881
C          4.99702       -1.90681       -1.70913
C          5.59090       -2.11205       -2.96514
C          4.84503       -2.59200       -4.04232
C          3.50671       -2.91903       -3.86890
C          2.91105       -2.74071       -2.62441
C          3.63461       -2.19576       -1.54261
H         -1.82340        2.07993       -1.60180
H         -4.05785        1.28530       -0.84563
H         -4.26282       -0.93835        0.24223
H         -2.26366       -2.33002        0.62811
H          0.92617       -3.45032        0.51206
H          2.68408       -2.91068        0.12705
H          4.06151       -2.15474        1.54149
H          3.17137       -0.66577        1.55577
H          5.76644       -0.67370        1.40467
H          5.34830        0.88133       -1.86081
H          4.51171        3.12696       -2.22248
H          2.89801        5.52397        1.25351
H          1.99016        6.04096       -0.15049
H         -0.02080        6.19567        1.20081
H         -1.94838        5.06259        2.22308
H          0.03442        1.27365        1.74620
H          1.84857        2.36023        0.58293
H          3.85518        3.60126        2.00317
H          4.60194        1.31344        2.37076
H          6.72018       -0.87679       -0.92740
H          6.25315       -2.34654       -0.08690
H          6.64214       -1.87866       -3.11788
H          5.30929       -2.71026       -5.01714
H          2.91944       -3.29261       -4.70305
H          1.85732       -2.99077       -2.51829
