24

O          1.25591       -0.11374        0.69967
C          2.38373        0.00698        0.24417
O          2.97683       -0.92751       -0.52243
C          3.23010        1.18168        0.57445
C          4.11096        1.68680       -0.29409
C          4.86177        2.89999        0.11597
O          5.77283        3.27982       -0.61229
N          4.48875        3.54860        1.27102
C          3.61203        3.00351        2.06086
C          3.24545        3.71577        3.31395
C          3.06598        2.99851        4.50216
C          2.73392        3.67706        5.67585
C          2.57091        5.06303        5.65934
C          2.74906        5.77675        4.47341
C          3.09530        5.10571        3.30008
N          3.01031        1.80456        1.77938
H          3.93910       -0.82259       -0.64184
H          4.31070        1.30749       -1.28551
H          3.21509        1.92289        4.53432
H          2.61197        3.12843        6.60674
H          2.31324        5.59021        6.57504
H          2.62497        6.85686        4.46410
H          3.24211        5.66597        2.37952
H          2.16626        1.51576        2.27364
