17

O          1.08304        0.31630        0.06881
S          2.52355        0.18850       -0.00755
O          3.31531        0.20647        1.20374
O          2.78356       -1.28473       -0.63165
C          3.18854        1.24042       -1.26116
Cl         2.59041        0.73761       -2.87647
S          2.70278        2.90396       -0.91918
O          2.70664        3.19876        0.49769
O          3.31633        3.82725       -1.85102
O          1.13171        2.88448       -1.31778
S          4.95137        1.14334       -1.20376
O          5.51511        1.97331       -0.16080
O          5.40271       -0.22351       -1.36267
O          5.37446        1.88959       -2.57912
H          3.05296       -1.90069        0.08779
H          0.62464        3.42755       -0.67160
H          6.17698        2.43732       -2.41932
