22

Cl        -2.69103        0.82502       -0.04073
C         -1.19849       -0.03145       -0.02105
C         -0.00001        0.67391        0.00017
C          1.19864       -0.03121        0.01969
Cl         2.69098        0.82557        0.04142
C          1.20522       -1.42787        0.01990
C          0.00034       -2.14915       -0.00330
C          0.00046       -3.61884       -0.00523
C         -0.60908       -4.33865       -1.04585
C         -0.60431       -5.73530       -1.04303
Cl        -1.35331       -6.59021       -2.33522
C          0.00041       -6.44190       -0.00893
C          0.60518       -5.73802        1.02700
Cl         1.35410       -6.59636        2.31696
C          0.61002       -4.34137        1.03348
C         -1.20472       -1.42809       -0.02467
H         -0.00014        1.76017        0.00148
H          2.15672       -1.95686        0.02638
H         -1.08125       -3.80846       -1.87119
H          0.00036       -7.52816       -0.01034
H          1.08220       -3.81336        1.86020
H         -2.15609       -1.95730       -0.03246
