24

C          1.17580       -0.10353        0.13852
C          0.75577        1.06839       -0.70771
O          0.06710        0.91474       -1.71601
C          1.17873        2.43679       -0.25272
C          0.42450        2.95679        0.94203
O          1.01780        3.60416        1.80953
C         -1.07753        2.74687        1.03735
C         -1.90422        3.80761        0.29943
C         -1.92744        3.58138       -1.21281
C         -3.34192        3.79525        0.82812
H          0.80061       -1.02903       -0.30753
H          0.75864       -0.00372        1.14328
H          2.26621       -0.15121        0.18364
H          2.24630        2.39243       -0.00875
H          1.07552        3.14549       -1.07857
H         -1.34027        1.73354        0.71856
H         -1.31166        2.78276        2.11046
H         -1.47879        4.80074        0.49081
H         -2.23605        2.55973       -1.45823
H         -2.62741        4.26851       -1.70032
H         -0.94641        3.76078       -1.65788
H         -3.36635        4.02278        1.89894
H         -3.95402        4.54494        0.31553
H         -3.80991        2.81594        0.67804
