31

C          3.30294        0.48116        0.17676
C          1.85384        0.06297        0.19312
C          1.55799       -1.38215       -0.08260
C          0.25900       -1.70226       -0.15528
N         -0.70672       -0.72456        0.03582
N         -2.04584       -0.83040       -0.05989
C         -2.44999        0.43850        0.15086
S         -4.13856        0.96138        0.01390
O         -4.66847        0.23453       -1.12420
O         -4.68102        0.75347        1.34299
N         -4.37643        2.61658       -0.31224
C         -3.23581        3.48966       -0.29220
C         -2.25138        3.44298       -1.28080
F         -2.34243        2.55539       -2.28243
C         -1.14354        4.28887       -1.22869
C         -1.01998        5.21005       -0.18626
C         -2.00729        5.28153        0.79740
C         -3.10179        4.42163        0.73803
F         -4.04962        4.50334        1.68433
N         -1.43524        1.30834        0.49329
C         -0.34755        0.58981        0.34505
N          0.95818        0.98237        0.41110
H          3.48479        1.08778       -0.71592
H          3.52257        1.08058        1.06456
H          3.97012       -0.38404        0.15854
H          2.36246       -2.08984       -0.22693
H         -0.10468       -2.69900       -0.36712
H         -5.10285        2.92784        0.33844
H         -0.37561        4.21150       -1.99240
H         -0.15285        5.86461       -0.13738
H         -1.92829        5.99518        1.61208
