23

O          1.23229        0.29384       -0.68468
C          2.35621        0.12353       -0.22413
N          2.94989        1.06190        0.56134
C          3.98654        0.80953        1.41915
O          4.18527        1.54896        2.37888
C          4.87523       -0.36364        1.03821
C          5.72318       -0.87006        2.22835
C          7.17373       -0.82420        1.75925
C          7.19763        0.32021        0.76611
C          5.90358        0.12806       -0.01187
C          4.04866       -1.47196        0.41017
O          4.29121       -2.66944        0.53061
N          3.01949       -1.05252       -0.38892
H          2.36850        1.85530        0.79632
H          5.61642       -0.23003        3.11136
H          5.46183       -1.88221        2.55484
H          7.43795       -1.76445        1.26103
H          7.87109       -0.67065        2.58796
H          8.07871        0.29308        0.11885
H          7.18583        1.28267        1.29116
H          6.06222       -0.62498       -0.79485
H          5.61207        1.05837       -0.51162
H          2.48055       -1.78588       -0.83011
