20

N          3.44178       -0.68505       -0.16534
C          2.13631       -0.20072       -0.01076
C          1.88825        1.17108       -0.05022
C          0.57952        1.66173       -0.01981
C         -0.51317        0.78356        0.00426
C         -1.83527        1.25671        0.03371
C         -2.91075        0.36715        0.03869
C         -2.67826       -1.00470        0.01126
C         -1.36970       -1.48989       -0.01888
C         -0.27577       -0.60837       -0.01889
C          1.04949       -1.07951       -0.04920
H          3.56919       -1.63032        0.18215
H          4.15481       -0.05036        0.18010
H          2.71380        1.87556       -0.10347
H          0.42155        2.73749       -0.03071
H         -2.03621        2.32546        0.04944
H         -3.92894        0.74653        0.06037
H         -3.51454       -1.69879        0.01187
H         -1.20806       -2.56521       -0.04142
H          1.23467       -2.14964       -0.10059
