15

N          1.04415        0.25202       -0.00745
C          0.29254        0.80318       -1.02769
N         -0.88065        1.32118       -0.70619
C         -1.56633        1.81385       -1.72342
N         -2.79331        2.38751       -1.44510
N         -1.16007        1.82811       -2.98129
C          0.02707        1.28354       -3.18649
N          0.49230        1.24759       -4.48718
N          0.78544        0.73473       -2.25268
H          0.44494       -0.02651        0.75709
H          1.68049       -0.44114       -0.37529
H         -2.81465        2.70036       -0.48400
H         -3.01940        3.07216       -2.15377
H         -0.28135        1.28868       -5.13601
H          1.15505        0.49372       -4.60198
