13

O          0.97862        0.06043        0.10494
C          0.29725        1.21524        0.37251
C         -0.81124        1.18722        1.21512
F         -1.21355        0.03242        1.76448
C         -1.50653        2.36038        1.49066
F         -2.57302        2.33307        2.30210
C         -1.09607        3.56222        0.92518
F         -1.76652        4.69177        1.19184
C          0.00897        3.59403        0.08362
F          0.40605        4.75147       -0.46261
C          0.70298        2.42184       -0.19096
F          1.77131        2.43905       -1.00137
H          1.71894        0.27114       -0.49562
