23

Br        -2.78326       -0.63137       -0.03353
C         -1.19102        0.38705       -0.05175
C         -1.25037        1.75748       -0.28799
C         -0.07515        2.51595       -0.30659
C          1.16460        1.90425       -0.07203
O          2.37502        2.56878       -0.07980
C          2.38645        3.93979       -0.13016
C          2.05458        4.67449        1.01225
C          2.11081        6.07170        0.98395
Br         1.60689        6.98911        2.56827
C          2.52585        6.72953       -0.18116
Br         2.63714        8.62099       -0.31793
C          2.88761        5.98826       -1.31255
C          2.82421        4.59428       -1.28372
Br         3.33543        3.63093       -2.83408
C          1.20577        0.51946        0.15389
Br         2.85034       -0.38760        0.44796
C          0.03288       -0.24114        0.16583
H         -2.20558        2.24798       -0.46486
H         -0.15825        3.57821       -0.51289
H          1.75340        4.15047        1.91627
H          3.22316        6.49661       -2.21381
H          0.07465       -1.31227        0.34025
