27

C          0.29679        2.66622        0.23379
C         -0.34121        1.30635        0.19864
C         -1.63846        1.16378       -0.31093
C         -2.25081       -0.09212       -0.36109
C         -1.57614       -1.23381        0.08127
N         -2.27020       -2.45858        0.01100
C         -1.86452       -3.72840        0.29710
O         -2.69253       -4.50961        0.76957
N         -0.57080       -4.10938        0.00648
C          0.07701       -3.70833       -1.23599
C         -0.11613       -5.37240        0.55957
C         -0.29426       -1.09531        0.61427
C          0.32143        0.16101        0.66347
Cl         1.91877        0.24971        1.31938
H          0.56937        2.93603        1.25911
H          1.18860        2.68442       -0.40083
H         -0.38615        3.43893       -0.13548
H         -2.18605        2.03107       -0.67495
H         -3.25756       -0.16603       -0.76633
H         -3.28048       -2.39075       -0.00395
H          1.12673       -3.48128       -1.02976
H          0.01975       -4.54217       -1.94359
H         -0.40272       -2.84932       -1.70772
H         -0.52738       -5.52147        1.56282
H         -0.45052       -6.18954       -0.08707
H          0.97583       -5.36803        0.62182
H          0.23423       -1.95045        1.02355
