23

Cl        -2.63622        0.94931        0.12798
C         -1.19636        0.00905        0.09109
C         -1.26493       -1.36749        0.29401
C         -0.09826       -2.13860        0.26714
C          1.14130       -1.53313        0.02066
O          2.34645       -2.20683       -0.01805
C          2.34549       -3.58123        0.00058
C          1.99257       -4.27729       -1.16154
C          2.03589       -5.66956       -1.17504
C          2.45529       -6.36228       -0.03836
C          2.83840       -5.66578        1.11473
Cl         3.36218       -6.60214        2.47100
C          2.79182       -4.26636        1.13966
Cl         3.26354       -3.36960        2.54508
C          1.19242       -0.14233       -0.17216
Cl         2.69204        0.66969       -0.45969
C          0.02817        0.62871       -0.13800
H         -2.22303       -1.84810        0.47953
H         -0.18747       -3.20577        0.44759
H          1.68712       -3.73445       -2.05298
H          1.75333       -6.21604       -2.07224
H          2.49233       -7.44961       -0.05887
H          0.07818        1.70366       -0.28706
