8

C          1.07193       -0.00675       -0.05671
C          0.56298       -0.12323        1.36859
Cl         1.16271        1.23266        2.35110
Cl        -1.21536       -0.14661        1.38920
H          0.72996        0.91734       -0.53632
H          0.72506       -0.84937       -0.66483
H          2.16714       -0.01297       -0.08153
H          0.91498       -1.05088        1.82850
