22

C          1.08163       -0.11529        0.02025
C          0.37912       -0.78752       -0.90140
C         -1.11805       -0.74628       -1.02397
C         -1.56701       -0.19778       -2.35872
C         -1.49717        1.19277       -2.61214
C         -1.89040        1.72211       -3.84510
C         -2.34509        0.84302       -4.80266
C         -2.41465       -0.50992       -4.56859
C         -2.03326       -1.06160       -3.36325
O         -2.88697       -1.19853       -5.64235
C         -3.10236       -0.12309       -6.57959
O         -2.76394        1.17633       -6.05270
H          0.59913        0.52212        0.75453
H          2.16454       -0.18751        0.05286
H          0.91023       -1.41301       -1.61634
H         -1.50829       -1.76256       -0.88749
H         -1.56765       -0.14369       -0.22446
H         -1.12552        1.86508       -1.84080
H         -1.83554        2.78620       -4.04334
H         -2.09432       -2.13351       -3.20912
H         -2.49310       -0.30888       -7.47171
H         -4.15903       -0.11843       -6.87093
