12

C          0.90077       -0.01652        0.01040
C          0.38700        0.65680        1.24826
O         -0.31856        1.65802        1.19184
C          0.76234        0.06590        2.61560
C          1.62728       -1.16125        2.67958
O          0.35066        0.60407        3.63874
H          0.54363        0.52738       -0.86967
H          0.52095       -1.03934       -0.04712
H          1.99315        0.00067       -0.00180
H          2.53593       -0.92178        3.23903
H          1.07588       -1.95322        3.19408
H          1.92371       -1.53828        1.70227
