50

C          1.20877       -1.13127        0.08688
C          0.25703        0.03816       -0.01122
C          0.96140        1.35301       -0.25441
C         -1.09492       -0.26251       -0.63969
C         -1.72314        0.68986       -1.57262
C         -2.35331        0.39354       -2.72687
Cl        -3.01379        1.69994       -3.66549
C         -2.54713       -0.98704       -3.28540
F         -1.35926       -1.61547       -3.49596
F         -3.25112       -1.77670       -2.42934
F         -3.21282       -1.01596       -4.46864
C         -1.01314        0.09173        0.82902
C         -1.28573       -0.88630        1.91045
O         -1.20021       -0.55702        3.08087
O         -1.71176       -2.08091        1.44213
C         -2.15380       -3.09959        2.37725
C         -1.33474       -3.26326        3.60156
N         -0.68569       -3.46007        4.54615
C         -3.65061       -3.01598        2.64644
C         -4.31184       -1.79806        2.86703
C         -5.68147       -1.76795        3.13191
C         -6.40274       -2.95638        3.21605
C         -5.76494       -4.18294        3.02928
O         -6.58440       -5.28523        3.13594
C         -6.03226       -6.53823        3.23564
C         -6.49218       -7.50059        2.33649
C         -5.99858       -8.80330        2.39834
C         -5.05255       -9.14382        3.36541
C         -4.61762       -8.18915        4.28622
C         -5.12303       -6.88889        4.23647
C         -4.40209       -4.20703        2.71535
H          0.69835       -2.07733        0.29159
H          1.74726       -1.24951       -0.85995
H          1.94281       -0.96615        0.88174
H          1.31894        1.40930       -1.28723
H          0.31418        2.21620       -0.06699
H          1.82494        1.45064        0.41268
H         -1.28853       -1.30683       -0.87708
H         -1.67295        1.74197       -1.29168
H         -1.37206        1.08005        1.10738
H         -1.99738       -4.02333        1.80328
H         -3.77953       -0.85108        2.84351
H         -6.18471       -0.81620        3.28482
H         -7.46772       -2.92662        3.43296
H         -7.23518       -7.23426        1.58974
H         -6.35508       -9.55248        1.69629
H         -4.66404      -10.15831        3.41004
H         -3.89120       -8.46101        5.04809
H         -4.80049       -6.15738        4.97243
H         -3.90636       -5.15639        2.52589
