39

Cl        -2.35474       -0.43559       -0.94446
C         -0.64696       -0.51135       -0.75894
C         -0.01780       -1.74449       -0.60457
C          1.36681       -1.80130       -0.42125
C          2.13094       -0.62502       -0.39994
C          3.61953       -0.67901       -0.16433
O          4.05641       -0.80609        1.18130
C          3.76716        0.20042        2.16814
C          4.63082        1.49619        2.02581
N          4.25859        2.55682        1.11164
C          4.57804        2.66524       -0.21450
C          4.03665        3.86225       -0.62391
N          3.52719        4.54632        0.44307
C          3.76149        3.78000        1.48444
C          2.30404        0.19994        2.61331
C          1.53138        1.37059        2.66839
C          0.16008        1.33225        2.95031
C         -0.46603        0.11847        3.19680
Cl        -2.16219        0.06685        3.46810
C          0.27721       -1.05154        3.22593
C          1.65161       -1.00941        2.96225
Cl         2.49213       -2.52029        3.09736
C          1.48263        0.60383       -0.59131
C          0.09819        0.66312       -0.75668
H         -0.59910       -2.66238       -0.61521
H          1.84548       -2.76896       -0.28130
H          3.99885       -1.57000       -0.68180
H          4.12542        0.14482       -0.65751
H          4.25015       -0.23355        3.05859
H          4.70105        1.96753        3.01571
H          5.65124        1.20705        1.74186
H          5.13093        1.91610       -0.75909
H          4.02090        4.28064       -1.62248
H          3.57298        4.05621        2.51366
H          1.94687        2.34471        2.45751
H         -0.41522        2.25552        2.94604
H         -0.21055       -1.99913        3.43815
H          2.04225        1.53434       -0.58454
H         -0.38771        1.62855       -0.86925
