23

Cl        -2.64375        0.90511        0.09449
C         -1.19378       -0.02011        0.07946
C         -1.23823       -1.37840        0.38601
C         -0.06286       -2.13566        0.38157
C          1.16098       -1.53501        0.05555
O          2.37206       -2.19876        0.05332
C          2.36999       -3.57234        0.02843
C          2.06304       -4.23737       -1.16294
C          2.10547       -5.63051       -1.19663
Cl         1.70766       -6.46049       -2.64956
C          2.46873       -6.35756       -0.06296
C          2.80085       -5.68844        1.11831
C          2.75918       -4.29305        1.16224
Cl         3.17622       -3.49776        2.63417
C          1.18881       -0.16282       -0.24223
Cl         2.66895        0.64067       -0.63351
C          0.01527        0.59449       -0.23286
H         -2.18360       -1.85429        0.63754
H         -0.12919       -3.18671        0.64714
H          1.79760       -3.67184       -2.05108
H          2.50380       -7.44457       -0.09335
H          3.09444       -6.25825        1.99605
H          0.04581        1.65563       -0.46376
