39

C          0.90037       -0.03940       -0.12137
C          0.47627       -0.59344        1.23995
C          1.17462        0.15905        2.37687
C         -1.03497       -0.58133        1.39289
C         -1.75172        0.61764        1.52582
C         -3.14440        0.61989        1.69692
C         -3.91853        1.91135        1.89713
C         -3.48511        2.62148        3.18283
C         -3.79706        2.84450        0.69056
C         -3.82260       -0.60745        1.71180
C         -3.13551       -1.82298        1.57123
C         -3.86100       -3.15669        1.60980
C         -4.57042       -3.37067        2.94976
C         -4.84186       -3.30043        0.44392
C         -1.74210       -1.79255        1.41005
H          0.61437        1.01126       -0.24159
H          0.43670       -0.60651       -0.93623
H          1.98698       -0.10645       -0.24319
H          0.82274       -1.63431        1.29176
H          0.96390        1.23363        2.35011
H          0.85410       -0.22067        3.35346
H          2.26081        0.03513        2.30872
H         -1.21638        1.56396        1.50824
H         -4.98344        1.66709        2.00786
H         -2.44481        2.96137        3.13224
H         -4.11284        3.49946        3.36890
H         -3.57582        1.95487        4.04792
H         -4.12741        2.34357       -0.22609
H         -4.42072        3.73444        0.82949
H         -2.76706        3.18265        0.53418
H         -4.90265       -0.61687        1.84487
H         -3.11994       -3.96071        1.50792
H         -5.38040       -2.64964        3.10496
H         -5.00632       -4.37433        2.99853
H         -3.86850       -3.26882        3.78503
H         -4.32993       -3.17147       -0.51619
H         -5.30058       -4.29525        0.44788
H         -5.64933       -2.56192        0.49357
H         -1.19724       -2.72925        1.30444
