49

C          1.04546        0.01465       -0.14984
C          0.55452        1.42802        0.24101
C          1.10566        2.39450       -0.83268
C         -0.98570        1.43514        0.17749
C          0.97272        1.84889        1.66188
C          1.34943        0.91065        2.63689
C          1.68042        1.30206        3.93925
C          1.63580        2.64789        4.31551
C          2.00195        3.07254        5.71351
S          0.82656        2.51857        6.98640
C         -0.64202        3.29939        6.51695
C         -1.75957        2.41621        6.15459
N         -2.96410        2.78414        5.87031
N         -3.25652        4.13974        5.86960
C         -4.70154        4.44585        5.56846
C         -5.08220        3.81450        4.21176
C         -5.58587        3.83150        6.67530
C         -5.05727        5.94420        5.48471
C         -2.28701        5.10755        6.15368
O         -2.47905        6.32204        6.11507
C         -0.92870        4.60355        6.53749
Cl         0.21065        5.81405        7.04096
C          1.26088        3.59408        3.35759
C          0.93058        3.19877        2.05605
H          0.78273       -0.22248       -1.18789
H          0.59074       -0.76538        0.47079
H          2.13489       -0.06800       -0.05866
H          0.85736        2.04475       -1.84221
H          0.68702        3.40235       -0.74471
H          2.19680        2.47720       -0.76835
H         -1.41623        0.75037        0.91806
H         -1.39405        2.43242        0.37885
H         -1.34396        1.12528       -0.81069
H          1.38877       -0.15176        2.41283
H          1.97247        0.53938        4.65893
H          2.98244        2.64773        5.95927
H          2.13131        4.15739        5.76739
H         -1.54519        1.33368        6.14609
H         -4.98525        2.72329        4.22723
H         -6.11938        4.04378        3.94157
H         -4.43321        4.19115        3.41288
H         -5.31311        4.23013        7.65921
H         -6.64675        4.04935        6.50532
H         -5.48084        2.74190        6.72260
H         -4.87641        6.45639        6.43625
H         -4.48915        6.44977        4.69630
H         -6.11990        6.08445        5.25148
H          1.22251        4.65261        3.60853
H          0.62737        3.97381        1.35605
