26

C          1.00712        1.02810       -0.50777
C          0.45947        0.77564        0.68781
C         -0.99244        0.63786        0.93319
O         -1.47643        0.78617        2.04204
O         -1.64304        0.26887       -0.19516
C         -3.04687       -0.03119       -0.06608
C         -3.34569       -1.35841       -0.77110
O         -3.35349       -2.46008        0.15525
C         -2.11260       -3.01238        0.30514
C         -1.67107       -4.00163       -0.57024
C         -0.41323       -4.57651       -0.37957
C          0.39155       -4.16223        0.68393
C         -0.07240       -3.19597        1.57626
C         -1.33805       -2.63999        1.40046
H          0.40522        1.15676       -1.40186
H          2.08327        1.12216       -0.61083
H          1.07564        0.68016        1.57492
H         -3.37823       -0.06543        0.97736
H         -3.57666        0.77944       -0.57630
H         -4.36476       -1.31409       -1.17131
H         -2.66920       -1.53955       -1.61627
H         -2.30417       -4.33383       -1.38720
H         -0.06203       -5.35272       -1.05433
H          1.37373       -4.60496        0.82789
H          0.54382       -2.88246        2.41440
H         -1.71617       -1.91200        2.11267
