23

Cl        -2.36726        2.09747        0.19945
C         -1.05403        0.99441        0.07605
C         -1.25580       -0.35209        0.35029
C         -0.18525       -1.24188        0.23623
Cl        -0.49939       -2.91051        0.57803
C          1.09569       -0.80472       -0.15402
O          2.02793       -1.80847       -0.31994
C          3.35882       -1.58547       -0.06373
C          3.78935       -1.11715        1.17984
C          5.15133       -0.91263        1.40081
C          6.08270       -1.19818        0.39469
Cl         7.74830       -0.89602        0.75572
C          5.66117       -1.71085       -0.84217
Cl         6.82269       -2.08344       -2.07923
C          4.29062       -1.91560       -1.06489
Cl         3.70378       -2.55120       -2.57289
C          1.26891        0.55767       -0.45616
Cl         2.73160        1.24069       -1.07735
C          0.19803        1.45195       -0.31948
H         -2.24086       -0.71052        0.63724
H          3.07815       -0.90477        1.97366
H          5.48681       -0.52797        2.36230
H          0.33600        2.50703       -0.55093
