13

C         -2.00163       -0.66041       -0.00704
N         -2.08537        0.68968        0.00315
C         -0.92524        1.39820        0.01681
C          0.28823        0.71953        0.01969
N          1.59946        1.13490        0.03183
C          2.30527        0.02280        0.02842
N          1.50748       -1.08945        0.01478
C          0.21159       -0.66339        0.00851
N         -0.89099       -1.42739       -0.00518
H         -2.94834       -1.19319       -0.01808
H         -0.99899        2.47754        0.02511
H          3.38572       -0.04107        0.03543
H          1.80469       -2.05325        0.01026
