29

C          1.07334       -0.25307       -0.01050
C          0.59767        0.49500        1.22984
C          0.99924        1.99394        1.27284
C          0.31736        2.73338        0.10736
C          0.64900        2.62872        2.65979
C          1.39654        1.93613        3.82342
C          1.11315        2.56525        5.19081
C          1.40563        4.06046        5.19874
C          0.61999        4.76443        4.10689
C          0.96448        4.12817        2.77752
O          1.45227        4.80531        1.87576
H          0.55705        0.07756       -0.91516
H          0.86999       -1.32347        0.10267
H          2.15107       -0.12863       -0.15375
H         -0.49260        0.40179        1.30975
H          1.02220       -0.03845        2.08385
H          2.08497        2.06583        1.12488
H         -0.76225        2.81527        0.26732
H          0.71820        3.73935       -0.03374
H          0.48098        2.22631       -0.84742
H         -0.43338        2.52685        2.81814
H          2.47726        1.97122        3.63373
H          1.11641        0.88173        3.89678
H          1.72525        2.06893        5.95264
H          0.06422        2.39333        5.46130
H          2.48022        4.21987        5.04296
H          1.15362        4.48473        6.17674
H          0.87579        5.82859        4.07923
H         -0.45996        4.68157        4.27010
