28

N          3.50677       -0.54662        0.17772
C          2.18474       -0.11939        0.00585
C          1.88091        1.23369        0.02818
C          0.55380        1.65434        0.00388
C         -0.50019        0.73022       -0.00786
C         -1.81333        1.22054       -0.00931
C         -2.89515        0.34567        0.00035
S         -4.52828        1.02182        0.03288
O         -4.70577        1.67848        1.30814
O         -4.74150        1.71723       -1.21625
O         -5.52923       -0.24314        0.03020
C         -2.68782       -1.02607       -0.00925
C         -1.37384       -1.53671       -0.01113
S         -1.31915       -3.31575       -0.06797
O         -1.73947       -3.79699        1.22994
O         -2.01710       -3.72102       -1.26969
O          0.19431       -3.82129       -0.25525
C         -0.23954       -0.66907        0.00506
C          1.13221       -1.04483        0.05170
H          3.68298       -1.48992       -0.15440
H          4.20007        0.11300       -0.16235
H          2.67258        1.97675        0.07204
H          0.35405        2.72479        0.01178
H         -2.00032        2.29447       -0.00649
H         -6.44671        0.09607        0.08869
H         -3.53665       -1.70925       -0.01471
H          0.20178       -4.79208       -0.11913
H          1.42165       -2.08385        0.14057
