19

O          0.95703       -0.30292       -0.06041
N          2.16111       -0.02425       -0.01687
O          2.81799        0.47821       -0.93646
C          2.86974       -0.31785        1.22920
C          2.45206       -1.39119        2.01868
C          3.14063       -1.67099        3.21193
N          2.68507       -2.81926        4.01153
O          1.73218       -3.48100        3.58352
O          3.29060       -3.05584        5.06732
C          4.23511       -0.87787        3.62539
O          4.91592       -1.12790        4.78438
C          4.63263        0.20566        2.81288
N          5.75599        1.10126        3.17232
O          5.98199        2.04677        2.40203
O          6.40887        0.88298        4.19750
C          3.95167        0.48093        1.60948
H          1.60593       -2.00201        1.70156
H          4.56627       -1.90391        5.27303
H          4.25397        1.31493        0.97422
