55

C         -0.11220       -0.20556        1.06875
C         -0.99302       -0.75715        0.22186
C         -2.12501       -0.02469       -0.44322
N         -1.81158        0.04895       -1.86732
C         -2.51475       -0.86900       -2.80997
C         -3.94725       -0.43237       -3.25435
C         -3.73188        0.88764       -3.97655
N         -3.55321        1.98271       -4.57568
C         -1.23255        1.23707       -2.34847
C         -1.90445        2.47297       -2.19368
C         -1.50552        3.62258       -2.90223
N         -2.39400        4.69458       -3.21534
C         -3.77703        4.62114       -3.15923
C         -4.43677        5.23512       -4.38034
O         -4.44053        4.06556       -2.28661
C         -0.25736        3.64293       -3.55202
N          0.20351        4.82561       -4.18485
N          1.07771        5.36165       -3.46611
C          1.44291        6.63151       -3.96115
C          2.62766        6.82571       -4.69212
Br         3.74748        5.36027       -5.15269
C          3.03868        8.10700       -5.10011
C          2.25998        9.22635       -4.77275
N          2.71026       10.56986       -5.16374
O          3.79580       10.66530       -5.74597
O          1.97229       11.52339       -4.87555
C          1.07068        9.07482       -4.05880
C          0.69673        7.78216       -3.66411
N         -0.52323        7.64596       -2.90764
O         -1.57969        7.78117       -3.53939
O         -0.41364        7.44822       -1.69343
C          0.45178        2.44658       -3.67036
C         -0.05218        1.25556       -3.12252
O          0.63540        0.12343       -3.48801
C          1.24207       -0.52333       -2.37545
H         -0.16221        0.84558        1.33644
H          0.69995       -0.79229        1.48708
H         -0.88316       -1.80696       -0.03712
H         -3.05152       -0.58570       -0.27682
H         -2.27034        0.96138        0.01244
H         -1.88848       -1.01697       -3.69991
H         -2.59276       -1.85441       -2.33440
H         -4.38612       -1.17268       -3.92879
H         -4.59876       -0.28481       -2.38827
H         -2.85516        2.48368       -1.66802
H         -2.02225        5.33370       -3.90959
H         -4.65742        4.44353       -5.10480
H         -5.37069        5.72457       -4.09586
H         -3.79397        5.97163       -4.87082
H          3.96752        8.22355       -5.65816
H          0.45076        9.93122       -3.79506
H          1.37272        2.42492       -4.24617
H          1.42318        0.14785       -1.52897
H          0.63342       -1.37965       -2.07592
H          2.21227       -0.90841       -2.70520
