22

C          1.08687       -0.10591        0.18685
C          0.70236        1.35318        0.00035
C          1.13241        1.93091       -1.35016
C          0.50919        1.27687       -2.58990
C         -1.01510        1.19698       -2.60718
C         -1.68758        2.55469       -2.67878
C         -2.36475        2.94047       -3.96783
O         -1.65955        3.33875       -1.72896
H          0.58749       -0.75124       -0.54142
H          0.79595       -0.44503        1.18647
H          2.16840       -0.24131        0.08653
H         -0.37731        1.46917        0.14192
H          1.17918        1.94100        0.79415
H          0.90777        3.00379       -1.35732
H          2.22411        1.85507       -1.43558
H          0.85097        1.82917       -3.47445
H          0.90912        0.26067       -2.69208
H         -1.32383        0.60752       -3.47807
H         -1.40881        0.66634       -1.73470
H         -3.31361        3.43361       -3.73748
H         -1.71824        3.61656       -4.53155
H         -2.58509        2.05852       -4.57391
