16

C          0.97848       -0.04368       -0.11911
O          0.44824        0.52966       -1.31082
C          0.84483        1.82185       -1.55228
C          2.16820        2.23929       -1.36441
C          2.53896        3.55313       -1.65129
C          1.59285        4.45333       -2.13829
C          0.27352        4.04039       -2.35055
Cl        -0.83546        5.21795       -2.96447
C         -0.10609        2.72079       -2.06750
Cl        -1.73814        2.18621       -2.32152
H          0.36261       -0.91154        0.13565
H          0.93524        0.65688        0.72239
H          2.00143       -0.39694       -0.28058
H          2.93057        1.54849       -1.01587
H          3.56814        3.87312       -1.50374
H          1.89069        5.47580       -2.35937
