23

C          1.18541       -0.10948       -0.05317
C          0.54098        0.74375        1.04416
C          0.88019        2.24385        0.86195
C          0.47349        2.88843       -0.46569
C         -0.99023        3.22260       -0.52597
O         -1.59382        3.96754        0.22638
O         -1.63360        2.57325       -1.51385
C         -0.96997        0.50015        1.16064
C         -1.32063       -0.89642        1.59813
O         -1.53702       -1.26534        2.73768
O         -1.38691       -1.76119        0.56707
H          0.66219       -0.00430       -1.00877
H          1.17389       -1.16984        0.21870
H          2.23351        0.17147       -0.20234
H          1.00078        0.43575        1.99383
H          0.44867        2.81027        1.69698
H          1.96931        2.34983        0.95714
H          1.00971        3.83698       -0.59231
H          0.75596        2.26803       -1.32172
H         -2.56923        2.84902       -1.41499
H         -1.40539        1.18243        1.90159
H         -1.49280        0.69172        0.22011
H         -1.62337       -2.61598        0.98344
