47

C          1.28014       -0.25794       -0.23108
C          0.70679       -0.67338        1.13270
C          1.23874        0.31168        2.18371
C         -0.84123       -0.71331        1.10521
N         -1.36228       -1.61359        0.05265
C         -1.54433       -1.08734        2.42149
O         -2.71891       -0.78657        2.63359
O         -0.77444       -1.76003        3.31800
C         -1.41673       -2.05441        4.57839
C         -1.08171       -0.99812        5.65230
C         -1.19191        0.46146        5.17706
O         -2.49424        0.83016        4.76426
O         -1.68824       -1.22907        6.94257
C         -3.11729       -1.31123        7.03585
N         -3.74995       -0.01276        7.16026
C         -4.96575        0.32029        6.60340
N         -5.20205        1.61761        6.66482
C         -4.08649        2.14457        7.28187
C         -3.65481        3.53773        7.45097
O         -4.34091        4.49043        7.09301
N         -2.38524        3.70691        8.02330
C         -1.70712        2.66772        8.40910
N         -0.46466        2.81463        8.93672
N         -2.09994        1.35578        8.33368
C         -3.26188        1.13222        7.70072
H          0.86950        0.70551       -0.55373
H          1.06098       -1.00144       -1.00282
H          2.37006       -0.15943       -0.18384
H          1.09765       -1.66951        1.37582
H          0.70242        1.26632        2.14740
H          1.14781       -0.10108        3.19081
H          2.30361        0.52065        2.03404
H         -1.19175        0.30345        0.87740
H         -2.38545       -1.58746        0.08724
H         -1.12103       -1.23515       -0.86277
H         -2.49385       -2.19630        4.44905
H         -1.04284       -3.03014        4.91134
H         -0.00926       -1.12783        5.85276
H         -0.89468        1.13481        5.98406
H         -0.51078        0.66617        4.35171
H         -2.75713        0.34275        3.95877
H         -3.56159       -1.86149        6.20433
H         -3.35276       -1.84470        7.96323
H         -5.60901       -0.40806        6.12620
H         -0.34505        2.32721        9.81655
H         -0.25511        3.80311        9.05486
H         -1.37774        0.64428        8.37774
