25

C          0.98739        0.07196        0.06828
C         -0.31647        0.07196        0.06828
C         -1.83647        0.07196        0.06828
C         -2.40820        0.45834       -1.28936
O         -2.37323       -1.17437        0.54403
C         -2.01831       -2.33010       -0.06686
O         -1.32928       -2.42055       -1.07604
N         -2.41135       -3.45682        0.61007
C         -3.29068       -3.56888        1.69930
C         -4.33604       -2.66762        1.92762
C         -5.18136       -2.82464        3.02814
C         -4.98172       -3.88188        3.91244
C         -3.95424       -4.79223        3.67499
Cl        -3.69670       -6.09076        4.77489
C         -3.12348       -4.65484        2.56230
H          2.05276        0.06169        0.06156
H         -2.15722        0.82615        0.79671
H         -2.07746       -0.21837       -2.08369
H         -3.50235        0.41773       -1.26937
H         -2.09961        1.47080       -1.57075
H         -1.88143       -4.27231        0.33197
H         -4.53780       -1.85157        1.23918
H         -5.99470       -2.12173        3.19071
H         -5.62973       -3.99219        4.77751
H         -2.32204       -5.37047        2.40152
