46

N          2.76128       -0.30202       -1.18177
C          1.95378       -0.15608       -0.36166
C          0.91792        0.03623        0.70252
N          1.53289        0.23586        2.07649
C          2.31090       -0.91436        2.57028
C          2.73083       -0.74094        4.03311
C          3.49932        0.55435        4.23769
C          2.67933        1.72047        3.71097
C          2.27111        1.49761        2.25088
C          0.09064        1.29533        0.31686
C         -1.06893        1.07126       -0.65197
N         -1.88498       -0.10016       -0.38039
C         -2.98810        0.03945        0.58747
C         -2.63023        0.23106        2.04661
C         -2.55664       -0.86401        2.92078
C         -2.01571       -0.71613        4.20083
C         -1.56564        0.53055        4.62860
C         -1.72939        1.64321        3.80902
C         -2.29677        1.49908        2.54152
C         -1.07600       -1.30417       -0.29992
C          0.03639       -1.24325        0.74099
H          3.20266       -1.07317        1.95289
H          1.72193       -1.83605        2.53480
H          3.34958       -1.59089        4.34242
H          1.84046       -0.74503        4.67568
H          3.72527        0.69766        5.29982
H          4.45647        0.50532        3.70473
H          1.78161        1.84669        4.33096
H          3.25612        2.64818        3.79643
H          1.65609        2.36128        1.98027
H          3.16099        1.51922        1.61153
H         -0.30297        1.76552        1.21464
H          0.74583        2.06063       -0.12485
H         -0.65576        0.96887       -1.66436
H         -1.69295        1.97280       -0.69671
H         -3.63231        0.87212        0.27494
H         -3.63749       -0.84251        0.50023
H         -2.85416       -1.85472        2.58463
H         -1.90510       -1.58246        4.84734
H         -1.08155        0.63436        5.59568
H         -1.37569        2.61714        4.13647
H         -2.39074        2.37508        1.90314
H         -0.62315       -1.48042       -1.28514
H         -1.70776       -2.18281       -0.12077
H          0.65723       -2.14057        0.60654
H         -0.40723       -1.35579        1.73022
