33

C          0.93126       -0.35551        0.00805
C          0.58584        0.22408        1.35759
C          0.14362       -0.73359        2.29280
C         -0.24360       -0.39300        3.57991
C         -0.68082       -1.40549        4.45554
C         -1.08455       -1.11142        5.75241
C         -1.05248        0.20159        6.18527
C         -0.61766        1.20924        5.31630
C         -0.19659        0.95454        3.97757
C          0.25906        1.95480        3.03229
C          0.29485        3.30750        3.42009
C          0.70797        4.33075        2.57899
C          1.12921        4.05859        1.29086
C          1.53673        5.14984        0.50045
C          1.98743        4.97057       -0.79823
C          2.04064        3.69070       -1.30957
C          1.63260        2.60412       -0.52109
C          1.14268        2.72103        0.81297
C          0.67694        1.62203        1.69597
H          0.32318        0.10623       -0.77526
H          0.71392       -1.42894       -0.04763
H          2.00275       -0.25513       -0.18769
H          0.09707       -1.78120        1.99505
H         -0.71145       -2.44243        4.12627
H         -1.42087       -1.90289        6.41571
H         -1.36355        0.45268        7.19580
H         -0.61697        2.21600        5.72258
H         -0.01120        3.62076        4.41342
H          0.69665        5.34948        2.96161
H          1.50605        6.16253        0.89892
H          2.29816        5.82080       -1.39761
H          2.39968        3.52036       -2.32129
H          1.72855        1.64620       -1.00862
