33

C          1.32466        0.21592       -0.19604
C          0.43293       -0.33637        0.87863
C         -0.60461        0.60746        1.42525
C          0.56633       -1.57475        1.39215
C          1.68042       -2.55312        1.14101
C          2.76474       -2.46961        2.23468
C          2.41233       -3.08190        3.58287
C          2.89158       -4.49597        3.81221
C          1.79992       -2.44872        4.60691
C          1.28193       -1.03480        4.66909
C         -0.23876       -0.96463        4.81462
C         -0.68996       -1.25505        6.22036
O         -1.42497       -0.50909        6.85663
H          1.01934        1.22732       -0.48580
H          1.26119       -0.40496       -1.09642
H          2.36497        0.26583        0.13723
H         -1.39682        0.08126        1.96768
H         -0.12666        1.30575        2.12286
H         -1.07825        1.18767        0.62847
H         -0.14848       -1.91103        2.13597
H          1.26521       -3.56620        1.08198
H          2.14599       -2.35515        0.16859
H          3.66165       -2.97466        1.85094
H          3.08035       -1.42776        2.37109
H          3.51361       -4.54462        4.71422
H          2.04282       -5.17630        3.93295
H          3.50254       -4.86600        2.98348
H          1.67237       -3.01025        5.53326
H          1.76092       -0.53177        5.51771
H          1.57895       -0.47388        3.77857
H         -0.58394        0.04218        4.55414
H         -0.75053       -1.67757        4.16234
H         -0.38036       -2.22870        6.63688
