40

C          2.46498       -0.46636        0.80012
C          1.00325       -0.18344        0.58608
C          0.18785       -1.33796        0.53429
C         -1.19361       -1.25936        0.38967
C         -1.80053       -0.01689        0.35271
C         -1.01177        1.13307        0.35039
C          0.39960        1.07573        0.35620
N          1.08801        2.29208       -0.06295
C          2.47405        2.41025        0.06881
O          3.04608        2.78194        1.08670
C          3.24219        1.95356       -1.12406
C          4.60948        1.68970       -1.03498
C          5.22846        0.91350       -2.03010
S          6.96837        0.66560       -1.86291
N          7.54284        2.20795       -2.21619
O          7.26558        0.44374       -0.46488
O          7.51246       -0.17052       -2.89953
C          4.46174        0.37298       -3.06558
Cl         5.02169       -0.77345       -4.22404
C          3.11024        0.73418       -3.18433
C          2.49919        1.55984       -2.24169
N          1.15455        1.94087       -2.41523
C          0.61999        2.80514       -1.35607
C          0.96843        4.27775       -1.61095
H          2.59348       -1.36538        1.41553
H          2.96579       -0.65517       -0.15262
H          2.96756        0.32148        1.36035
H          0.64396       -2.32603        0.59699
H         -1.78877       -2.16660        0.33347
H         -2.88243        0.06280        0.29385
H         -1.52137        2.09405        0.31079
H          5.16900        2.03456       -0.16579
H          8.07707        2.56828       -1.42451
H          8.07376        2.17934       -3.08841
H          2.51610        0.34454       -4.00882
H          0.57471        1.10601       -2.50749
H         -0.47170        2.76536       -1.41776
H          0.60154        4.59059       -2.59498
H          0.49875        4.91613       -0.85449
H          2.04387        4.47931       -1.58907
