32

C          3.96341       -1.39028       -0.00823
C          2.88996       -2.26915       -0.02289
C          1.58283       -1.77546       -0.04106
C          1.31264       -0.38821       -0.04164
C          0.02758        0.19086       -0.04241
C         -0.12234        1.61346       -0.01058
C          0.96252        2.46680       -0.00731
C          2.23499        1.89981       -0.01949
C          2.42554        0.50045       -0.02763
C          3.73110       -0.01644       -0.01339
C         -1.54428        1.91310        0.02589
C         -2.25003        3.10301        0.09281
C         -3.65373        3.05203        0.12819
C         -4.34071        1.82179        0.09177
C         -3.62440        0.61181        0.02416
C         -4.14952       -0.68930       -0.01746
C         -3.28095       -1.79485       -0.07883
C         -1.88098       -1.63161       -0.09469
C         -1.34339       -0.35505       -0.04959
C         -2.23166        0.71394       -0.00068
H          4.98113       -1.77064        0.01011
H          3.06411       -3.34203       -0.01659
H          0.78133       -2.50183       -0.04613
H          0.83773        3.54358        0.00880
H          3.09653        2.56565       -0.01334
H          4.58785        0.65445        0.00083
H         -1.73779        4.05872        0.12423
H         -4.22139        3.97824        0.18716
H         -5.42723        1.81382        0.12045
H         -5.22417       -0.84963       -0.00344
H         -3.69984       -2.79867       -0.11363
H         -1.26386       -2.51799       -0.14514
