25

C          0.90770        0.07806        0.13481
C          0.44565       -1.31802       -0.26400
C          0.90769       -2.37854        0.72767
C         -1.06111       -1.36648       -0.46480
O         -1.54901       -1.62972       -1.55563
O         -1.71296       -1.08638        0.69583
C         -3.07287       -1.09399        0.66428
O         -3.80072       -1.32475       -0.29188
C         -3.64736       -0.76363        2.03315
C         -3.25901       -1.81417        3.06618
C         -3.25901        0.64243        2.47332
H          0.54709        0.35431        1.13123
H          0.53644        0.82773       -0.57226
H          2.00161        0.13396        0.14345
H          0.89521       -1.55309       -1.23803
H          0.54708       -2.16990        1.74041
H          0.53643       -3.36818        0.44037
H          2.00160       -2.42435        0.76086
H         -4.73990       -0.78983        1.92460
H         -2.18374       -1.80002        3.27304
H         -3.78733       -1.64025        4.00983
H         -3.51631       -2.81925        2.71491
H         -3.51631        1.37667        1.70230
H         -3.78733        0.91806        3.39242
H         -2.18373        0.72419        2.66387
