41

C         -0.00131       -1.47209        0.45002
O          0.18637       -1.33146       -1.55485
C          0.86423       -2.40216       -2.79240
O          1.42546       -1.97746       -3.77832
C          0.43284       -4.14445       -2.16682
C          0.79701       -5.70375       -2.90723
C         -0.03051       -7.12803       -2.23144
C         -1.19799       -7.05450       -0.85311
C         -1.63352       -5.54432       -0.00132
C         -0.85666       -4.04965       -0.56365
S         -2.16888       -2.11740       -0.35287
O         -3.28076       -2.22667       -1.28273
O         -2.46119       -2.10011        1.07724
N         -1.16752       -0.15893       -0.77083
C          0.69413        0.15473       -0.62627
O          1.11643        1.27107       -0.33820
N          1.77875       -1.28828       -0.63151
C          0.85992       -2.87376       -0.76685
N         -0.75021       -2.77835       -1.86464
C         -1.57271       -4.06304       -2.49333
C         -2.72391       -4.02060       -3.41923
N         -0.93740       -5.36832       -1.89032
C          0.56804       -5.42198       -0.68081
O          0.99521       -6.61013       -0.04416
C          2.34707       -6.58643        0.37890
N          1.43478       -4.13905       -0.20139
H         -0.23558       -2.46824        0.85522
H         -0.63577       -0.70465        0.94875
H          0.92951       -1.23086        1.03347
H          1.41744       -5.77283       -3.79291
H          0.12087       -8.09047       -2.71919
H         -1.72390       -7.97194       -0.59191
H         -2.47783       -5.51907        0.67858
H         -1.68975        0.55992       -0.26678
H          2.68279       -1.29832       -0.18315
H         -2.54144       -4.68076       -4.27036
H         -3.62513       -4.36221       -2.90228
H         -2.88318       -3.00561       -3.79081
H          3.01761       -6.24260       -0.41502
H          2.46145       -5.98777        1.28733
H          2.62936       -7.61582        0.62460
