26

N          0.98555        0.21303       -0.02331
C          0.28051        0.67857        1.09017
C          0.59755        1.91734        1.65436
C         -0.18907        2.46286        2.67340
C         -1.33034        1.78502        3.11271
C         -1.67843        0.57048        2.52818
C         -0.88833        0.03332        1.50166
C         -2.88236       -0.15671        2.97643
O         -3.17407       -1.23983        2.48226
C         -3.72769        0.43434        4.03292
C         -4.87754       -0.24275        4.45950
C         -5.68817        0.31283        5.45068
C         -5.35484        1.54315        6.01638
C         -4.20685        2.21746        5.59643
C         -3.38971        1.66007        4.60439
C         -2.17199        2.37528        4.17266
O         -1.86463        3.44519        4.68563
H          0.88888       -0.78391       -0.19417
H          1.95339        0.51772       -0.06455
H          1.46147        2.47507        1.29986
H          0.08395        3.42314        3.10722
H         -1.19073       -0.89619        1.02294
H         -5.14518       -1.20280        4.02121
H         -6.58091       -0.21437        5.78006
H         -5.98866        1.97796        6.78623
H         -3.95258        3.17684        6.04400
