24

C          1.20581        0.05929       -0.09113
C          0.65214        0.45788       -1.41289
N          0.26441       -0.38494       -2.35207
C         -0.18925        0.38272       -3.39164
C         -0.08453        1.71043       -3.07345
N         -0.45194        2.82487       -3.87039
O         -0.92939        3.80601       -3.29141
O         -0.30424        2.69695       -5.09131
N          0.49221        1.77036       -1.83080
C          0.95743        2.94311       -1.10217
C          2.38005        3.35001       -1.51621
O          2.37713        3.75694       -2.89071
C          2.89602        4.52632       -0.68329
Cl         3.19359        4.05941        1.00636
H          1.16765       -1.02876        0.02419
H          0.62532        0.50020        0.72474
H          2.24945        0.37322        0.00268
H         -0.57256       -0.06339       -4.30097
H          0.24682        3.75578       -1.26663
H          0.90563        2.70280       -0.03604
H          3.06725        2.49960       -1.42409
H          2.89843        3.11078       -3.40308
H          3.83689        4.90489       -1.09643
H          2.18472        5.35933       -0.69213
