48

C          0.56029        0.05360       -0.25199
C          0.44195       -1.23881        0.56692
C          0.99822       -1.00529        1.99908
C          0.34269        0.03530        2.93531
C         -1.15800        0.00471        3.09270
C         -1.93972        0.98630        2.46462
C         -3.33291        0.91973        2.49632
C         -3.96466       -0.12678        3.16188
C         -3.20286       -1.08425        3.82862
C         -1.80704       -1.00512        3.81617
N         -0.93898       -1.69548        0.46807
C         -1.25542       -3.11721        0.29446
C         -0.54233       -4.15371        1.20445
O         -0.47860       -3.68723        2.55198
C         -1.25104       -5.48621        1.30480
C         -2.45813       -5.58994        2.02331
C         -3.06219       -6.82639        2.24405
C         -2.46796       -7.98042        1.74876
O         -3.12776       -9.15287        2.00196
C         -1.26664       -7.90374        1.03207
C         -0.55629       -9.10887        0.54440
N         -0.65379      -10.23175        1.32630
O          0.11494       -9.10235       -0.47982
C         -0.67355       -6.65494        0.79051
H         -0.05481        0.86140        0.15533
H          0.24997       -0.10887       -1.29053
H          1.59859        0.40331       -0.27316
H          1.09322       -1.97274        0.07507
H          1.07579       -1.95719        2.52833
H          2.04818       -0.69516        1.88838
H          0.78259       -0.08742        3.93506
H          0.65182        1.03838        2.61624
H         -1.46555        1.80168        1.92249
H         -3.92258        1.67998        1.99044
H         -5.04995       -0.18885        3.16884
H         -3.69775       -1.89590        4.35697
H         -1.23410       -1.75814        4.35514
H         -1.59273       -1.20659        1.07444
H         -2.33902       -3.19218        0.45503
H         -1.10400       -3.39569       -0.75521
H          0.48978       -4.28705        0.86053
H         -0.77833       -2.76597        2.49612
H         -2.90974       -4.69919        2.45740
H         -3.98330       -6.88633        2.81756
H         -2.74060       -9.85012        1.43872
H         -0.01742      -10.97864        1.07255
H         -0.83923      -10.12553        2.31870
H          0.26778       -6.60642        0.24493
