30

C          0.83008       -0.10487        0.07390
C          0.40751        1.32554        0.14831
C         -0.39642        1.91851       -0.74864
C         -0.77060        3.33586       -0.66992
C         -2.08952        3.71747       -0.90826
C         -2.44592        5.06612       -0.85255
C         -1.49666        6.05744       -0.56502
O         -2.04440        7.31326       -0.53115
C         -1.33276        8.37351        0.08488
C         -0.97948        8.24013        1.56142
O          0.01440        8.69648        2.11148
O         -1.92859        7.62214        2.29474
C         -0.15712        5.68723       -0.36522
O          0.76903        6.67674       -0.17833
C          2.03631        6.30880        0.35361
C          0.18951        4.32817       -0.42255
H          0.44917       -0.60384       -0.82240
H          0.46939       -0.64843        0.95213
H          1.92294       -0.16488        0.05754
H          0.79344        1.88772        0.99610
H         -0.81288        1.35707       -1.58144
H         -2.85296        2.97493       -1.12711
H         -3.48137        5.35162       -1.02625
H         -0.44427        8.63233       -0.50034
H         -1.98349        9.25442        0.02269
H         -1.56674        7.62447        3.20421
H          1.92995        5.72742        1.27574
H          2.62923        5.76825       -0.39092
H          2.57396        7.22924        0.60017
H          1.22198        4.01559       -0.30307
