57

C          1.78437       -0.10204       -0.30777
C          1.11633        1.13137        0.27648
C          0.92741        2.32106       -0.68436
C         -0.00968        2.11922       -1.88179
N         -1.45550        2.49768       -1.77145
C         -2.08044        2.84359       -3.08414
C         -1.99949        1.76570       -4.19599
O         -2.95583        0.68684       -4.08534
C         -2.69013       -0.59053       -3.72360
C         -1.35433       -0.91193       -3.13277
O         -3.56048       -1.45275       -3.81946
C         -2.26730        1.85093       -0.83388
C         -1.95834        1.83308        0.51839
C         -2.56707        0.93078        1.40137
C         -3.57262        0.05549        0.97982
N         -4.00592       -0.87700        1.95030
N         -4.96078       -1.57706        1.58717
C         -5.65879       -2.18916        2.64645
C         -5.94326       -1.54307        3.87325
C         -5.44420       -0.23171        4.18846
N         -5.05841        0.82082        4.48852
C         -6.77756       -2.15142        4.82283
C         -7.35017       -3.39729        4.55279
N         -8.26984       -3.99786        5.52670
O         -8.48574       -3.36909        6.57051
O         -8.77455       -5.08980        5.23777
C         -7.08007       -4.05662        3.35061
C         -6.23920       -3.45285        2.40356
C         -6.01819       -4.13737        1.15748
N         -5.87533       -4.72383        0.17019
C         -4.07496        0.24068       -0.31772
C         -5.19540       -0.56342       -0.92632
C         -3.44815        1.18044       -1.16321
H          1.30861       -0.43433       -1.23291
H          1.70753       -0.92675        0.41162
H          2.84596        0.07669       -0.49545
H          0.17418        0.79467        0.69728
H          1.71485        1.47518        1.12915
H          0.63483        3.21661       -0.12586
H          1.92579        2.53998       -1.08933
H          0.40682        2.75813       -2.67391
H          0.08725        1.10402       -2.26164
H         -3.11371        3.18512       -2.94375
H         -1.54171        3.72436       -3.45838
H         -2.28580        2.26574       -5.12975
H         -0.98716        1.39628       -4.35958
H         -1.30402       -0.55852       -2.10257
H         -1.22877       -1.99904       -3.10643
H         -0.53712       -0.52330       -3.73878
H         -1.19852        2.49888        0.91487
H         -2.21967        0.89440        2.43219
H         -6.99441       -1.62737        5.75473
H         -7.53491       -5.02288        3.12795
H         -5.52759       -0.13719       -1.87941
H         -4.85401       -1.58464       -1.12627
H         -6.07951       -0.57324       -0.28381
H         -3.90420        1.32059       -2.13483
