26

C          1.14010        0.19117        0.04847
C          0.50704       -0.49946        1.26592
C          1.05594        0.17483        2.54148
N         -0.94706       -0.27612        1.24859
C          0.86636       -2.01654        1.32879
C          0.46091       -2.98923        0.23665
C         -0.48186       -2.71293       -0.75959
C         -0.81973       -3.67446       -1.71727
C         -0.23356       -4.93626       -1.68325
C          0.69161       -5.23887       -0.68953
C          1.03405       -4.27432        0.26091
H          0.93131        1.26802        0.05057
H          0.76929       -0.20547       -0.90091
H          2.22939        0.07003        0.05305
H          0.83045        1.24789        2.55931
H          0.62597       -0.26980        3.44678
H          2.14508        0.06816        2.60518
H         -1.37967       -0.75111        2.04046
H         -1.15276        0.71600        1.35745
H          1.96085       -2.08399        1.41814
H          0.45907       -2.42408        2.26572
H         -0.97821       -1.74812       -0.81174
H         -1.54910       -3.43396       -2.48645
H         -0.50296       -5.68262       -2.42506
H          1.14453       -6.22560       -0.64988
H          1.75400       -4.53484        1.03442
