21

Cl         1.20544        0.67626        0.06092
C          2.89683        0.26818        0.06619
C          3.31134       -1.06805        0.06836
Cl         2.12114       -2.34399        0.06585
C          4.69326       -1.39262        0.07246
Cl         5.18553       -3.02985        0.07332
C          5.70574       -0.38920        0.07504
C          5.20552        0.91763        0.07244
O          6.21371        1.81495        0.07452
C          7.38707        1.14800        0.07846
C          8.63346        1.79288        0.08119
Cl         8.68606        3.52000        0.07970
C          9.78050        0.99510        0.08498
Cl        11.34935        1.74746        0.08797
C          9.65422       -0.39824        0.08651
Cl        11.08467       -1.39744        0.09130
C          8.37056       -1.00430        0.08420
Cl         8.23111       -2.70823        0.08824
C          7.17084       -0.23448        0.07945
C          3.85194        1.28795        0.06806
Cl         3.43976        2.96599        0.06508
