12

N          0.97797       -0.15389        0.01082
C          0.57776        0.48934        1.26689
C          0.99708        1.97013        1.34283
N          0.63777        2.71722        0.13409
H          0.48296        0.32350       -0.74388
H          1.96895        0.01282       -0.15127
H         -0.51130        0.41041        1.36100
H          1.01669       -0.05762        2.10786
H          0.52168        2.43569        2.21249
H          2.08197        2.03699        1.48459
H          0.91408        3.69179        0.25181
H          1.18227        2.36471       -0.65055
