48

C         -1.04017        0.89709       -0.03822
C         -0.62503        0.11638        1.24070
C          0.03629        1.07187        2.24003
C          1.27432        1.74573        1.61094
C          2.27403        0.75519        0.95984
C          1.67001       -0.56123        0.36602
C          2.79349       -1.59769        0.47223
C          3.96501       -1.20192       -0.43014
C          4.28764        0.28220       -0.53105
C          5.49988        0.62500       -1.00937
C          5.89532        2.03745       -1.20213
O          6.96554        2.29460       -1.75613
C          4.94194        3.12077       -0.76307
C          3.97443        2.62063        0.31771
C          3.23678        1.33862       -0.13408
C          2.39465        1.74825       -1.36605
O          2.36035        1.14893       -2.43719
C          0.37334       -1.03023        1.00493
C         -0.45837       -2.06280        0.21973
C         -1.91951       -1.83104        0.66965
C         -1.84380       -0.70357        1.71827
O         -1.63283       -1.25704        3.01531
H         -1.86708        1.57892        0.19162
H         -1.36758        0.25016       -0.85602
H         -0.23572        1.49896       -0.45979
H          0.35164        0.52977        3.14167
H         -0.67465        1.83689        2.57209
H          0.95204        2.51356        0.90239
H          1.79549        2.30327        2.40109
H          2.91161        0.46807        1.81197
H          1.44104       -0.43222       -0.69658
H          2.44510       -2.60143        0.20650
H          3.14178       -1.66919        1.51361
H          3.74654       -1.56983       -1.43967
H          4.85228       -1.74695       -0.07910
H          6.23138       -0.11156       -1.32538
H          4.39993        3.47277       -1.64899
H          5.52581        3.95953       -0.37084
H          3.26847        3.42753        0.54719
H          4.53954        2.41825        1.23705
H          1.77006        2.64907       -1.22793
H          0.63551       -1.49496        1.96751
H         -0.13704       -3.08631        0.43475
H         -0.37445       -1.91532       -0.86412
H         -2.37299       -2.74929        1.05311
H         -2.51762       -1.50718       -0.19186
H         -2.76506       -0.11540        1.75980
H         -1.36843       -2.18887        2.91980
