13

N          0.74871        0.19304       -0.06009
C          0.16453        0.85512        0.99912
N         -0.85040        0.25851        1.60790
C         -1.39530        0.92898        2.61301
N         -2.46135        0.34446        3.26378
N         -0.97357        2.09279        3.06229
C          0.05338        2.57103        2.37562
Cl         0.66858        4.07710        2.90146
N          0.68164        2.01400        1.35096
H          0.56791       -0.79991       -0.01796
H          1.70370        0.49175       -0.20043
H         -2.46633       -0.65737        3.13433
H         -2.55621        0.69717        4.20590
