13

C          0.87691        0.15622       -0.05342
C          0.69306       -0.91798        1.00163
O          1.20648       -0.46471        2.26730
C          2.50421       -0.56551        2.64465
N          3.37994       -1.07376        1.73994
O          2.89069       -0.20504        3.74891
H          0.42083        1.09650        0.27356
H          0.42067       -0.14730       -0.99974
H          1.93645        0.36462       -0.22941
H         -0.37617       -1.10600        1.14574
H          1.14465       -1.87115        0.70812
H          4.35009       -1.09157        2.02200
H          3.15212       -1.31127        0.79101
