49

C          0.61744       -0.85307       -0.09738
C         -0.06173       -0.81735       -1.25559
C         -1.48550       -0.37673       -1.37523
C          0.66965       -1.19132       -2.49382
O          1.52618       -2.05871       -2.56342
O          0.32010       -0.33017       -3.47548
C          1.09141       -0.38483       -4.68456
C          2.54713        0.06218       -4.51249
O          2.67596        1.41797       -4.09925
C          2.48623        1.65617       -2.70807
C          1.22385        2.46285       -2.35153
O          0.38218        2.95006       -3.38423
C          0.96167        3.53394       -4.54218
C          2.26488        4.35275       -4.44935
O          2.70950        4.63952       -3.12842
C          2.65122        6.00754       -2.74291
C          1.25070        6.45176       -2.30907
O          0.26115        6.35769       -3.34480
C          0.41127        7.18361       -4.40691
O          1.28089        8.02828       -4.54524
C         -0.53973        6.78867       -5.48098
C         -1.79619        6.42003       -5.18132
C          0.00886        6.79686       -6.87251
H          0.15404       -0.55914        0.83865
H          1.66148       -1.15441       -0.05934
H         -1.56268        0.56303       -1.93203
H         -2.07659       -1.13747       -1.89443
H         -1.94103       -0.21391       -0.39280
H          1.04391       -1.39582       -5.10334
H          0.59073        0.28705       -5.39044
H          3.12091       -0.58392       -3.84282
H          3.02828        0.00668       -5.49567
H          2.52885        0.73392       -2.11965
H          3.35646        2.22865       -2.36711
H          0.58373        1.83953       -1.72157
H          1.47595        3.28681       -1.67458
H          1.07097        2.75621       -5.30734
H          0.18064        4.16983       -4.96611
H          3.06323        3.77347       -4.92648
H          2.19108        5.25386       -5.06701
H          3.31138        6.09727       -1.87261
H          3.08088        6.63250       -3.53012
H          0.90246        5.79702       -1.50230
H          1.27262        7.47425       -1.91715
H         -2.48984        6.10199       -5.95269
H         -2.15853        6.40145       -4.15707
H          0.52162        7.73731       -7.09391
H          0.72478        5.97642       -6.99734
H         -0.77960        6.66303       -7.62027
