27

O          2.30275       -1.31644        0.04001
C          1.32367       -0.58923        0.03214
C          1.35507        0.92199        0.00662
N         -0.05238        1.24628        0.00335
N         -0.65107        2.47109        0.15430
C         -0.04632        3.61620        0.13021
C          1.36804        3.94803       -0.12450
C          1.92272        5.14294        0.11858
C          3.33243        5.27082       -0.06364
C          4.18195        4.59915       -0.94766
C          5.51614        4.94098       -0.63247
C          5.41363        5.84346        0.39279
N          6.41472        6.51494        1.15752
O          6.04338        7.29607        2.04145
O          7.58970        6.24668        0.87049
O          4.11884        6.08202        0.72836
C         -0.82109        0.06655        0.02803
S         -2.47005       -0.11369        0.06141
N          0.02994       -0.99935        0.02392
H          1.84437        1.30714        0.90357
H          1.81725        1.22777       -0.93411
H         -0.69014        4.49384        0.32195
H          1.98625        3.16043       -0.50728
H          1.36776        5.97723        0.53688
H          3.86750        3.89543       -1.70816
H          6.42551        4.56452       -1.08076
H         -0.25462       -1.96502        0.04204
