61

C          0.82062        1.87683        0.92361
C         -0.46371        2.17479        1.09867
C         -1.66576        1.30869        0.79408
C         -2.25774        0.86678        2.14661
O         -2.62859        2.14969        0.15195
C         -1.50617        0.03884       -0.09087
C         -1.02821        0.20406       -1.55081
C          0.45460       -0.09922       -1.87570
C          1.00338       -1.45695       -1.37079
C          0.42395       -2.60326       -2.21064
C          2.55148       -1.55574       -1.39408
C          3.32852       -0.66902       -0.40568
C          2.97833       -0.83329        1.08057
C          3.39365       -2.13286        1.78718
C          4.91579       -2.22336        1.93499
C          2.75167       -2.20747        3.19922
C          1.21427       -2.19632        3.25077
C          0.52383       -3.27273        2.40674
C          0.88648       -4.71985        2.78101
C          0.40018       -5.08276        4.18414
C          0.29227       -5.68699        1.75510
H          1.10225        0.92807        0.50781
H          1.62121        2.55596        1.19721
H         -0.67064        3.14094        1.55774
H         -2.31368        1.69990        2.85777
H         -3.28152        0.49515        2.02733
H         -1.65315        0.07627        2.60829
H         -2.64357        3.00283        0.61560
H         -0.92699       -0.71850        0.44110
H         -2.51895       -0.38713       -0.17887
H         -1.63196       -0.47573       -2.16799
H         -1.27109        1.20994       -1.91381
H          0.56069       -0.06643       -2.96937
H          1.07057        0.72895       -1.52464
H          0.68476       -1.62676       -0.34405
H          0.72039       -2.51192       -3.26134
H          0.78236       -3.57114       -1.84350
H         -0.66883       -2.62079       -2.16343
H          2.84434       -2.59581       -1.20496
H          2.90228       -1.31972       -2.40731
H          4.40108       -0.83895       -0.55121
H          3.16255        0.37992       -0.67901
H          3.41279        0.01529        1.62600
H          1.90094       -0.73895        1.18116
H          3.06094       -2.99372        1.19774
H          5.30774       -1.38401        2.52060
H          5.19902       -3.14878        2.44842
H          5.41473       -2.22192        0.96212
H          3.11382       -3.10611        3.71315
H          3.10894       -1.35922        3.79907
H          0.90040       -2.29039        4.29690
H          0.83949       -1.21485        2.93700
H         -0.56212       -3.13488        2.49294
H          0.76039       -3.10562        1.35112
H          1.97483       -4.84354        2.74923
H         -0.68464       -4.95839        4.27161
H          0.64135       -6.12428        4.42049
H          0.87618       -4.45848        4.94617
H          0.66257       -5.46084        0.74921
H          0.57398       -6.71925        1.98808
H         -0.80099       -5.62759        1.73638
