36

C          0.87287       -0.00513       -0.11275
C          0.49641       -1.04701       -1.15879
C          0.83689       -2.39796       -0.86258
C          1.47048       -2.77681        0.35552
C          1.80500       -4.09392        0.65877
C          1.49855       -5.08499       -0.24656
C          0.87965       -4.74139       -1.44955
C          0.55495       -3.39925       -1.80821
C         -0.02466       -3.02685       -3.07481
C         -0.09294       -4.12145       -4.12482
C         -0.48092       -1.67541       -3.37497
C         -0.16333       -0.69495       -2.38291
C         -0.50313        0.64851       -2.63931
C         -1.10149        1.07727       -3.81358
C         -1.44821        0.17290       -4.79302
C         -2.05205        0.68919       -5.95448
C         -2.47234       -0.14496       -6.97651
C         -2.33375       -1.50832       -6.81326
C         -1.74444       -2.01957       -5.64442
C         -1.20707       -1.21359       -4.59686
H          0.36689       -0.22831        0.83316
H          0.61780        1.02545       -0.34693
H          1.95891       -0.01027        0.03541
H          1.72317       -2.03412        1.10833
H          2.29218       -4.33289        1.59966
H          1.73571       -6.12241       -0.02856
H          0.63977       -5.57010       -2.11054
H          0.71296       -4.85342       -4.01605
H         -1.05186       -4.64592       -4.06552
H          0.09445       -3.73258       -5.12687
H         -0.30424        1.44185       -1.92907
H         -1.30627        2.13997       -3.92985
H         -2.20132        1.76190       -6.06962
H         -2.92601        0.26678       -7.87297
H         -2.68930       -2.18672       -7.58430
H         -1.75309       -3.09947       -5.57236
