41

O          0.97352       -0.17157        0.00087
C          0.49055       -1.47369       -0.40615
C          1.04345       -1.70966       -1.84005
C          0.59171       -2.77022       -2.65033
C          1.08793       -2.97157       -3.94378
C          2.02125       -2.09246       -4.48015
C          2.45770       -1.01274       -3.72353
C          1.98045       -0.82806       -2.42138
C          0.98491       -2.51004        0.64602
C          0.94721       -3.89806        0.42614
C          1.31012       -4.81038        1.42524
C          1.71590       -4.35917        2.67593
C          1.74978       -2.99533        2.93245
C          1.37958       -2.08634        1.93652
C         -1.10973       -1.39926       -0.40311
C         -1.62484       -0.22612       -1.27168
C         -3.15057       -0.16291       -1.30194
C         -3.71938       -0.14609        0.11037
C         -3.16109       -1.29874        0.93550
N         -1.70256       -1.26470        0.95994
H          1.90440       -0.29575        0.24723
H         -0.16879       -3.46139       -2.29791
H          0.73408       -3.81153       -4.53623
H          2.39589       -2.23909       -5.48942
H          3.16399       -0.30207       -4.14574
H          2.33462        0.04886       -1.88428
H          0.61687       -4.31704       -0.51646
H          1.26347       -5.87810        1.22517
H          1.98989       -5.06888        3.45170
H          2.04441       -2.63213        3.91401
H          1.36182       -1.03038        2.20347
H         -1.49207       -2.34070       -0.81974
H         -1.26567       -0.31992       -2.30216
H         -1.24088        0.72739       -0.88699
H         -3.47636        0.73025       -1.84658
H         -3.54103       -1.03200       -1.84516
H         -3.47118        0.80754        0.59375
H         -4.81244       -0.20988        0.07192
H         -3.53430       -1.21800        1.96219
H         -3.51361       -2.25976        0.54183
H         -1.35424       -2.01982        1.55147
