26

C          0.13678        0.09254       -0.48673
C          0.30925       -1.09787       -1.41173
O          0.91865       -2.19578       -0.74693
P          2.64865       -2.19578       -0.74693
O          2.63682       -1.23043        0.44639
O          2.68474       -3.73208       -0.15323
C          1.68536       -4.27763        0.69614
C          1.40504       -3.48456        1.96215
O          4.37865       -2.19579       -0.74693
C          5.06972       -0.95696       -0.66668
C          4.67541       -0.00320       -1.77684
H         -0.23199       -0.21800        0.49521
H         -0.55626        0.82087       -0.91715
H          1.09252        0.60401       -0.32961
H         -0.67764       -1.43760       -1.74545
H          0.88568       -0.82787       -2.30060
H          0.76627       -4.44480        0.12485
H          2.04393       -5.26920        0.99229
H          0.89087       -2.54356        1.74693
H          0.75381       -4.05536        2.63178
H          2.33130       -3.24008        2.48970
H          4.92529       -0.50491        0.31956
H          6.13769       -1.18341       -0.75262
H          3.62034        0.27731       -1.70520
H          5.27556        0.91030       -1.72677
H          4.82013       -0.46904       -2.75629
