28

C          1.14562       -0.33702        0.49277
C          1.02122        0.52065       -0.75508
C          1.41659       -0.22557       -2.03187
C          0.42479       -1.28629       -2.52375
C         -1.03574       -0.85012       -2.72455
C         -1.29510        0.11137       -3.88992
C         -0.75465        1.45687       -3.65980
C         -0.24827        2.52426       -3.43513
C          0.42551        3.76136       -3.10180
O         -0.10369        4.55244       -2.33418
O          1.66046        3.97509       -3.64034
C          2.22013        3.04422       -4.57606
H          0.51905       -1.23097        0.43179
H          0.83512        0.23459        1.37334
H          2.18376       -0.64947        0.64454
H          0.00372        0.91666       -0.82326
H          1.67909        1.39111       -0.64206
H          1.58538        0.49914       -2.83090
H          2.39085       -0.70629       -1.87663
H          0.80298       -1.69513       -3.46965
H          0.43319       -2.12123       -1.81268
H         -1.61244       -1.76246       -2.92905
H         -1.44578       -0.44361       -1.79355
H         -2.37930        0.18990       -4.03826
H         -0.88182       -0.30538       -4.81530
H          2.55459        2.14258       -4.05706
H          1.51129        2.80495       -5.37388
H          3.09505        3.51616       -5.03189
