32

C          0.90736       -0.52115       -0.24288
C          0.58438       -0.53439        1.24408
C          1.11449        0.69544        1.98565
C          0.46302        2.02445        1.59035
C         -1.02541        2.16225        1.92081
C         -1.45837        1.93608        3.37858
C         -1.12289        3.01568        4.44785
C         -1.61587        4.40638        4.01668
C         -1.85695        2.62447        5.75033
C          0.37733        3.08920        4.76964
H          0.37664        0.28187       -0.76239
H          0.60762       -1.46865       -0.70207
H          1.98138       -0.39090       -0.40994
H         -0.49604       -0.63828        1.38688
H          1.04428       -1.42665        1.68655
H          1.00317        0.53122        3.06260
H          2.19408        0.77458        1.80705
H          1.02045        2.84119        2.05466
H          0.58895        2.18202        0.51250
H         -1.37094        3.14466        1.58027
H         -1.57420        1.44041        1.30168
H         -2.55381        1.83869        3.35043
H         -1.09908        0.95826        3.72112
H         -2.68349        4.38912        3.77114
H         -1.47154        5.14115        4.81739
H         -1.07265        4.77475        3.14036
H         -1.52773        1.64238        6.10848
H         -1.66622        3.35039        6.54930
H         -2.94127        2.58043        5.59848
H          0.79903        2.09293        4.93733
H          0.94559        3.57848        3.97603
H          0.55591        3.67690        5.67814
