25

O          0.34155       -0.00713       -0.23563
C          0.45151       -1.37060        0.18517
C          1.01264       -2.24729       -0.95013
N          2.46504       -2.16956       -1.15674
C          2.98271       -3.09869       -2.17474
C          2.25400       -3.22655       -3.52695
O          2.37879       -2.06723       -4.33408
C          3.09205       -0.84255       -1.15068
C          2.82352        0.14414       -2.29976
O          1.47262        0.11136       -2.75376
H          0.05316        0.49570        0.54845
H          1.08074       -1.42441        1.08001
H         -0.55401       -1.71329        0.45025
H          0.77314       -3.28755       -0.69606
H          0.46971       -2.00528       -1.86914
H          4.04186       -2.88215       -2.36206
H          2.96710       -4.09608       -1.71570
H          2.70252       -4.05433       -4.08694
H          1.19320       -3.46645       -3.40929
H          1.85625       -1.36041       -3.89716
H          2.83557       -0.34243       -0.20965
H          4.18043       -0.96762       -1.07125
H          3.04217        1.16585       -1.97127
H          3.47710       -0.06783       -3.15073
H          0.92332        0.22795       -1.94597
