19

C          0.96142        0.11772       -0.04945
C          0.32129       -0.81461        0.66845
C         -1.14215       -0.86992        0.86678
O         -1.65441       -1.57714        1.72105
O         -1.79528       -0.09096       -0.02720
C         -3.22416       -0.05604        0.09381
C         -3.91395       -1.02653       -0.87429
C         -3.60776       -2.49314       -0.59891
O         -5.32960       -0.83593       -0.81033
H          0.43562        0.92297       -0.55342
H          2.04309        0.09825       -0.13652
H          0.87325       -1.59288        1.18448
H         -3.55579       -0.22095        1.12691
H         -3.53749        0.96697       -0.14718
H         -3.59845       -0.79661       -1.89810
H         -3.88069       -2.76450        0.42680
H         -4.19922       -3.13658       -1.25941
H         -2.55026       -2.72259       -0.75581
H         -5.63720       -1.17406        0.04928
