60

C          1.03942       -0.39664       -0.36824
C          0.85600       -0.89368        1.05766
C          1.32383        0.11174        2.11304
C          0.59218        1.45807        2.09980
C         -0.91559        1.37770        2.35752
C         -1.30556        0.79793        3.72092
C         -0.75293        1.56234        4.93007
C         -1.16871        3.03652        5.01617
C         -2.67956        3.29106        5.00030
C         -3.46707        2.53980        6.07541
C         -3.23182        3.04738        7.50452
C         -4.03166        4.31016        7.86444
C         -5.55285        4.30561        7.75478
C         -6.36829        3.23028        7.75633
O         -5.78781        1.92310        7.94883
C         -6.08400        0.62009        8.17683
C         -7.51090        0.23306        8.34784
O         -5.18387       -0.21493        8.24827
C         -7.82364        3.37676        7.48990
O         -8.52609        2.44427        7.12584
C         -8.41714        4.71142        7.63743
C         -9.80946        4.85281        7.70187
C        -10.37510        6.12152        7.83059
C         -9.55479        7.24802        7.87907
C         -8.16809        7.10610        7.80343
C         -7.59941        5.83077        7.69006
C         -6.13795        5.67918        7.62283
O         -5.43076        6.67341        7.50685
H          0.39080        0.45800       -0.58205
H          0.78642       -1.18913       -1.07942
H          2.07690       -0.09753       -0.54834
H         -0.19332       -1.16242        1.22057
H          1.43377       -1.81754        1.18123
H          1.23198       -0.34923        3.10340
H          2.39490        0.30105        1.96914
H          1.05699        2.11403        2.84494
H          0.75557        1.95439        1.13638
H         -1.33965        2.38338        2.25446
H         -1.39276        0.77904        1.57298
H         -2.39967        0.75700        3.78028
H         -0.97348       -0.24485        3.78533
H         -1.06412        1.04183        5.84359
H          0.34177        1.50825        4.93087
H         -0.73488        3.46654        5.92613
H         -0.71661        3.59131        4.18546
H         -2.86085        4.36834        5.09146
H         -3.07884        3.00562        4.01960
H         -4.52649        2.60333        5.80959
H         -3.22793        1.47191        6.04083
H         -3.46060        2.25251        8.22218
H         -2.16674        3.25662        7.65741
H         -3.77764        4.59094        8.89523
H         -3.63129        5.11007        7.22850
H         -7.98885        0.14194        7.37063
H         -7.55174       -0.74978        8.82938
H         -8.02919        0.92868        9.00943
H        -10.45551        3.97774        7.65400
H        -11.45591        6.23125        7.88798
H         -9.99488        8.23851        7.97342
H         -7.53436        7.99110        7.83646
