33

C          0.98811       -0.35693        0.42145
C          0.38885        1.03176        0.54150
C          0.92695        2.06356       -0.45732
C          0.46621        2.02591       -1.94455
C         -1.07170        1.93087       -2.03260
C          0.86550        3.37591       -2.61999
O          2.28247        3.52951       -2.82686
C          3.17559        4.06057       -1.95403
N          2.68090        4.69611       -0.86175
O          4.37825        3.99603       -2.14551
C          1.06526        0.83377       -2.73583
O          2.48992        0.71690       -2.55948
C          3.37510        0.77916       -3.58806
N          2.95484        1.42205       -4.71175
O          4.51073        0.33340       -3.50627
H          0.53378       -0.92053       -0.39551
H          0.80237       -0.92016        1.34244
H          2.07065       -0.31512        0.26808
H         -0.70373        0.97747        0.51329
H          0.63851        1.40405        1.54451
H          0.61700        3.03507       -0.04947
H          2.02153        2.04818       -0.40400
H         -1.55014        2.76795       -1.51235
H         -1.40706        1.95453       -3.07651
H         -1.44854        0.99911       -1.59954
H          0.42933        3.41212       -3.62641
H          0.44830        4.24108       -2.09450
H          3.36639        5.03701       -0.20128
H          1.70918        4.83200       -0.65583
H          0.63918       -0.10621       -2.37337
H          0.78161        0.88115       -3.79353
H          3.72202        1.64370       -5.33356
H          2.30253        2.17858       -4.57530
