36

C          0.83028       -0.10727       -0.15260
C          0.50604       -0.82879        1.10690
N          1.04682       -1.98876        1.43086
C          0.38513       -2.41162        2.54484
C         -0.55943       -1.49152        2.93012
N         -0.46682       -0.45090        2.02949
C         -1.20315        0.76226        2.11623
C         -0.58280        1.96689        1.74292
C         -1.26160        3.18157        1.86398
C         -2.55667        3.20325        2.36826
Cl        -3.38851        4.70051        2.52160
C         -3.18436        2.02067        2.75091
C         -2.51877        0.78797        2.62377
C         -3.29919       -0.44732        2.96202
C         -4.71051       -0.51575        2.50226
C         -5.00857       -0.40490        1.13907
C         -6.33898       -0.46497        0.71737
C         -7.36437       -0.63769        1.65049
C         -7.06258       -0.75243        3.00837
C         -5.73696       -0.69363        3.42957
F         -5.47748       -0.75947        4.74342
N         -2.84778       -1.47244        3.60000
C         -1.47951       -1.47373        4.08252
H         -0.02479        0.44986       -0.54497
H          1.12522       -0.82538       -0.92545
H          1.67038        0.57585        0.00259
H          0.62494       -3.35466        3.01949
H          0.45131        1.99881        1.40920
H         -0.76521        4.10759        1.58247
H         -4.19434        2.06802        3.15237
H         -4.21658       -0.28958        0.40397
H         -6.57803       -0.38472       -0.34094
H         -8.39921       -0.68612        1.31899
H         -7.85149       -0.88422        3.74258
H         -1.28449       -0.62231        4.74602
H         -1.33091       -2.37224        4.69244
