20

C          0.92678       -0.14323       -0.08620
C          0.44184       -0.63571        1.27637
C          0.82432        0.30126        2.43806
C          0.43755        1.77278        2.29072
C         -1.02755        2.01751        2.51371
O         -1.63039        1.88368        3.56350
O         -1.66708        2.40939        1.39769
C         -1.03118       -0.98851        1.31086
O         -1.58870       -1.60067        2.20782
O         -1.74132       -0.55172        0.25816
H          0.41581        0.77111       -0.40363
H          0.73946       -0.90005       -0.85640
H          2.00379        0.05352       -0.06718
H          0.95450       -1.59272        1.45006
H          0.40701       -0.09120        3.37439
H          1.91593        0.26003        2.54942
H          0.96633        2.36623        3.04707
H          0.74836        2.18510        1.32596
H         -2.59733        2.52280        1.68467
H         -2.65368       -0.85587        0.44704
