52

C          1.44398       -0.12599       -0.27158
S          0.79957        0.80337       -1.64216
O          1.60806        0.52189       -2.81056
O         -0.62917        0.56559       -1.60858
C          1.11354        2.50876       -1.19113
C          2.39178        2.82933       -0.70520
C          2.63244        4.08510       -0.14794
C          1.56965        4.97586        0.02117
C          1.85554        6.26999        0.68395
O          2.19195        6.21542        1.86516
C          1.79300        7.57077       -0.10040
C          1.97073        7.43162       -1.58206
O          3.08762        7.23585       -2.06763
C          0.75133        7.33455       -2.45151
C         -0.37238        8.27926       -2.07979
C         -0.52733        8.66783       -0.61986
C          0.66545        8.48467        0.29086
O          0.66273        9.05086        1.38767
C          0.28658        4.62067       -0.41234
Cl        -1.09297        5.50497        0.13377
C          0.08733        3.46918       -1.19284
C         -1.15051        3.35782       -2.06418
O         -0.84919        2.80667       -3.34760
C         -0.16180        3.65976       -4.27040
C         -1.11066        4.57307       -5.05582
C         -0.54056        4.98861       -6.40429
C         -1.31952        6.24489       -6.69698
C         -1.42333        6.87561       -5.32688
O         -1.34242        5.81606       -4.35507
H          1.15665       -1.17100       -0.40956
H          0.99659        0.25171        0.65130
H          2.53047       -0.04680       -0.24037
H          3.21143        2.11601       -0.77070
H          3.63146        4.34241        0.20212
H          2.69754        8.12369        0.20292
H          0.40884        6.30041       -2.43357
H          1.05894        7.53811       -3.48374
H         -1.32023        7.83889       -2.41917
H         -0.26446        9.19531       -2.67250
H         -1.37330        8.13628       -0.17545
H         -0.80138        9.72960       -0.58282
H         -1.88991        2.72111       -1.56917
H         -1.62723        4.32933       -2.22525
H          0.61996        4.23317       -3.76138
H          0.33147        2.97772       -4.97139
H         -2.08873        4.09340       -5.18200
H          0.52645        5.23002       -6.32023
H         -0.66070        4.21956       -7.17213
H         -0.83934        6.89889       -7.43046
H         -2.31857        5.99176       -7.06970
H         -0.58594        7.55809       -5.15159
H         -2.35396        7.43302       -5.18864
