23

Cl        -2.07732       -0.07710        0.24739
C         -0.36792        0.00447        0.07234
C          0.41868       -1.08306        0.45036
C          1.80630       -1.01929        0.30591
C          2.40311        0.13549       -0.20318
O          3.77200        0.10106       -0.35218
C          4.46746        1.26100       -0.10518
C          4.38149        1.92915        1.11801
C          5.14115        3.08001        1.32036
Cl         5.02943        3.92133        2.81733
C          5.99219        3.55649        0.32435
C          6.08649        2.86375       -0.88125
Cl         7.14148        3.43728       -2.11355
C          5.33496        1.71133       -1.09961
C          1.60950        1.21613       -0.60229
C          0.22099        1.15242       -0.45550
H         -0.04101       -1.98168        0.85169
H          2.42020       -1.87016        0.59090
H          3.73287        1.55438        1.90491
H          6.58048        4.45499        0.48837
H          5.41394        1.16764       -2.03707
H          2.05380        2.10596       -1.03859
H         -0.39329        1.99530       -0.76159
