26

C          0.66675       -0.14695       -0.04067
C          0.32953        0.54998        1.28075
C          0.93967        1.97576        1.45313
C          0.43300        2.78980        0.27371
N          0.01267        3.46511       -0.70472
C          0.41891        2.62942        2.76075
C          0.82941        1.91081        4.04364
C          2.47529        2.01663        1.47134
O          3.13662        0.86859        1.72755
N          3.11400        3.12851        1.33820
C          4.45751        3.21286        1.42729
N          5.32393        2.27356        1.43126
O          4.90529        4.46274        1.52251
H          0.21439        0.36700       -0.89448
H          0.27161       -1.16814       -0.03203
H          1.74455       -0.20892       -0.21279
H         -0.76560        0.61511        1.34600
H          0.63368       -0.11029        2.09982
H          0.77284        3.66717        2.82543
H         -0.67753        2.68728        2.73439
H          1.91747        1.85707        4.14527
H          0.44340        2.45224        4.91341
H          0.42687        0.89503        4.08686
H          2.58580        0.09319        1.91271
H          4.80189        1.39052        1.37048
H          5.87075        4.39064        1.57386
