25

O          1.85038       -0.46491       -0.12805
C          1.18186       -0.04218        1.07051
C          0.99890       -1.26782        1.97541
O          2.29032       -1.90671        2.05809
C          0.53339       -0.95485        3.40634
O         -0.86302       -0.76552        3.62603
C         -1.52473        0.31817        2.98037
C         -1.15472        1.72058        3.49607
O          0.23928        1.99338        3.32691
C         -1.92125        2.80879        2.73396
O         -3.32641        2.65884        2.85657
H          1.98446        0.33664       -0.66524
H          1.81725        0.70937        1.54746
H          0.23784        0.41132        0.77078
H          0.32118       -1.98379        1.49766
H          2.64229       -1.86127        1.14432
H          0.79383       -1.82297        4.02618
H          1.11664       -0.14329        3.84808
H         -1.40776        0.23095        1.90026
H         -2.59270        0.15832        3.17020
H         -1.39007        1.77768        4.56589
H          0.64162        1.91013        4.21121
H         -1.64745        3.79506        3.12642
H         -1.64205        2.81390        1.67299
H         -3.65763        2.27702        2.02200
