52

C          1.02928       -0.52337       -0.22526
C          0.57928        0.39568        0.90050
C          0.93239        1.86115        0.64240
C          0.11064        2.52785       -0.46829
C         -1.35239        2.79701       -0.11061
O         -1.44079        3.83631        0.87991
C         -1.65709        3.46270        2.16867
O         -1.84938        2.31128        2.54180
C         -1.63021        4.66004        3.12153
O         -1.11225        5.89170        2.60846
C          0.22579        6.03046        2.87662
C          1.14441        5.45022        1.99929
C          2.51609        5.48751        2.27257
N          3.42405        4.78982        1.44765
C          4.42954        3.98674        1.91929
O          4.73926        3.70166        3.06350
C          5.03634        3.35046        0.74493
C          4.38931        3.77296       -0.34124
C          4.67414        3.34555       -1.73078
C          5.61882        2.13120       -1.75167
C          6.72129        2.21881       -0.68307
C          6.15206        2.37562        0.73797
C          3.31821        4.67426        0.08823
O          2.53529        5.19435       -0.68467
C          2.94952        6.20901        3.39014
F          4.25988        6.35806        3.63248
C          2.04686        6.87899        4.21572
C          0.67897        6.78067        3.96515
Cl        -0.42025        7.59659        5.01205
H          0.52883       -0.28398       -1.16750
H          0.79545       -1.56347        0.02168
H          2.11058       -0.44781       -0.38074
H         -0.49587        0.27641        1.06622
H          1.07645        0.07613        1.82432
H          0.82351        2.42063        1.57711
H          1.99465        1.92240        0.37839
H          0.58344        3.48685       -0.70358
H          0.15855        1.92900       -1.38297
H         -1.86328        3.18208       -1.00015
H         -1.88335        1.88787        0.18763
H         -2.67127        4.85153        3.40426
H         -1.09479        4.35221        4.03029
H          0.77440        4.93081        1.12334
H          3.74786        3.09164       -2.25819
H          5.13954        4.17965       -2.26886
H          6.07149        2.04007       -2.74587
H          5.03494        1.21657       -1.58555
H          7.36779        3.07667       -0.90921
H          7.35349        1.32475       -0.72771
H          6.95027        2.68947        1.41852
H          5.78033        1.40575        1.09076
H          2.42590        7.47384        5.04096
