14

F          0.90451        0.00182       -0.09162
C          2.26067        0.01346       -0.05408
F          2.66950       -1.23145       -0.39096
F          2.66950        0.84915       -1.03639
C          2.76583        0.43641        1.30931
F          2.28521        1.67250        1.62415
F          2.28521       -0.40448        2.26846
C          4.26906        0.43610        1.30832
F          4.74969       -0.79999        0.99348
F          4.74968        1.27698        0.34917
C          4.77422        0.85904        2.67171
F          4.36540        2.10396        3.00859
F          4.36540        0.02335        3.65402
F          6.13039        0.87069        2.70925
