20

O          0.94143       -0.29812        0.33971
C          2.13684       -0.05786        0.22366
O          2.57280        1.17076       -0.13379
C          3.22130       -1.09194        0.51113
C          2.90077       -2.46311       -0.10337
C          2.79633       -2.51075       -1.63649
C          4.07532       -2.15979       -2.41512
C          3.83706       -2.24330       -3.91335
O          4.54549       -2.83065       -4.71729
O          2.75402       -1.56074       -4.33882
S          4.67724       -0.47452       -2.03650
S          4.89515       -0.57498       -0.00254
H          3.54564        1.19232       -0.26232
H          3.25654       -1.19109        1.60223
H          3.64561       -3.19939        0.22779
H          1.94178       -2.81125        0.30305
H          1.96271       -1.87139       -1.95367
H          2.49859       -3.53037       -1.91769
H          4.86581       -2.87911       -2.17048
H          2.76033       -1.65848       -5.31423
