31

C          1.35790        0.03621        0.31792
C          0.71083        1.33438        0.77862
C          0.92620        2.50156       -0.18859
C          0.20559        2.37500       -1.53233
O         -1.22179        2.42218       -1.36886
C         -1.86671        1.23233       -1.37550
O         -1.35648        0.12422       -1.45884
C         -3.32035        1.39753       -1.21104
C         -3.99694        2.46881       -1.65074
C         -5.45879        2.54422       -1.56969
C         -6.18826        2.87237       -2.71863
C         -7.58282        2.93607       -2.67688
C         -8.25738        2.68442       -1.48364
C         -7.53886        2.37438       -0.33034
C         -6.14433        2.30733       -0.37153
H          1.04186       -0.25336       -0.68681
H          1.08853       -0.77809        0.99834
H          2.44852        0.12624        0.31400
H         -0.35838        1.17691        0.95339
H          1.14284        1.60303        1.75037
H          0.57308        3.41352        0.30868
H          2.00045        2.62760       -0.36904
H          0.46918        3.24102       -2.15038
H          0.52651        1.49102       -2.09366
H         -3.82061        0.53583       -0.78287
H         -3.49475        3.29335       -2.14977
H         -5.67832        3.06309       -3.66027
H         -8.14194        3.17783       -3.57708
H         -9.34286        2.73125       -1.45221
H         -8.06376        2.18384        0.60219
H         -5.60077        2.07115        0.54020
