38

O         -2.36643        0.29759       -0.12310
C         -1.01144        0.18487        0.37517
C         -1.16676        0.47040        1.89256
C         -1.67947       -0.52233        2.75738
C         -1.80841       -0.30999        4.13409
C         -1.44673        0.91333        4.67854
Cl        -1.55728        1.16471        6.37506
C         -1.00900        1.93781        3.84803
C         -0.90197        1.72732        2.46606
C         -0.57145       -1.27535        0.08991
C          0.83052       -1.64725        0.57324
C          1.92851       -1.14368       -0.35167
C          2.37776        0.28925       -0.10678
C          1.31795        1.36935        0.12590
C         -0.11585        1.19761       -0.45137
N         -0.10941        0.97721       -1.90789
C         -1.14451        0.66103       -2.74186
N         -0.70838        0.53756       -3.97632
C          0.60880        0.85338       -3.86559
N          1.01199        1.18141       -2.63743
H         -2.93487        0.68289        0.56809
H         -2.00066       -1.49002        2.37859
H         -2.18882       -1.10688        4.76837
H         -0.74557        2.90587        4.26745
H         -0.58525        2.57536        1.86354
H         -1.28913       -1.98132        0.52359
H         -0.65581       -1.49222       -0.98264
H          0.88801       -2.74325        0.58239
H          1.00813       -1.32437        1.60453
H          1.63013       -1.27448       -1.39784
H          2.81000       -1.78502       -0.22164
H          3.01586        0.59142       -0.94742
H          3.05020        0.29743        0.76201
H          1.72701        2.31571       -0.25747
H          1.27477        1.52841        1.20580
H         -0.60458        2.18115       -0.37775
H         -2.16520        0.51556       -2.42333
H          1.29499        0.85148       -4.70249
