17

C          1.17720       -0.02981        0.13063
O          0.46625       -0.19715        1.35389
C          0.87442       -1.23772        2.14713
C          2.12053       -1.86055        2.09668
C          2.40622       -2.92142        2.96918
Cl         3.97108       -3.64936        2.85105
C          1.44747       -3.35759        3.89384
Cl         1.73858       -4.66868        4.98086
C          0.20652       -2.72366        3.95765
C         -0.06110       -1.66937        3.09236
O         -1.28304       -1.06040        3.17848
H          0.64266        0.71588       -0.46559
H          1.20172       -0.96207       -0.44426
H          2.18762        0.34952        0.31181
H          2.88666       -1.53483        1.40149
H         -0.54926       -3.04135        4.66932
H         -1.26494       -0.34315        2.51435
