38

C          0.98024        0.37063        0.57365
C          0.61035        0.38238       -0.90173
C          1.12272       -0.85217       -1.64396
C          0.34708       -2.14297       -1.35665
C         -1.08174       -2.20424       -1.91416
C         -1.28542       -1.86183       -3.39555
O         -0.83632       -2.87241       -4.29392
C          0.52785       -2.81049       -4.65343
C          0.88746       -1.64140       -5.55049
C          2.24061       -2.08346       -6.05533
C          2.05777       -3.59723       -6.21956
C          1.76834       -3.96894       -7.67236
C          3.26005       -4.37921       -5.69469
O          0.90996       -3.96177       -5.42313
H          0.49986       -0.45708        1.10249
H          0.66379        1.30398        1.04941
H          2.06399        0.27904        0.70246
H         -0.47369        0.48588       -1.01513
H          1.06029        1.27235       -1.35866
H          1.11387       -0.63876       -2.71561
H          2.17700       -1.01305       -1.38621
H          0.91821       -2.99458       -1.74101
H          0.30111       -2.30852       -0.27390
H         -1.46126       -3.21839       -1.73551
H         -1.70824       -1.52728       -1.32075
H         -2.36766       -1.79426       -3.55798
H         -0.88826       -0.87712       -3.65702
H          1.16116       -2.82560       -3.76542
H          0.91935       -0.67984       -5.03446
H          0.17106       -1.55325       -6.37678
H          2.99819       -1.86104       -5.29185
H          2.54331       -1.57129       -6.97274
H          1.55333       -5.03897       -7.76763
H          0.88428       -3.43978       -8.04479
H          2.61582       -3.72519       -8.32180
H          3.41077       -4.19167       -4.62499
H          3.09428       -5.45821       -5.79360
H          4.17853       -4.11611       -6.22803
