24

C          0.99506       -0.03873        0.17747
C          0.62642        1.40490        0.48490
C          1.07026        2.39199       -0.59858
C          0.46971        2.15758       -1.98906
C         -1.05925        2.22403       -2.06307
C         -1.67838        3.57284       -1.67349
C         -1.23673        4.78155       -2.50084
S         -1.74815        4.68475       -4.24241
H          0.45284       -0.41470       -0.69517
H          0.74026       -0.68121        1.02655
H          2.06844       -0.13838       -0.01177
H         -0.45291        1.47982        0.65363
H          1.10666        1.69111        1.42871
H          0.83578        3.40937       -0.26416
H          2.16320        2.34879       -0.68551
H          0.90229        2.88811       -2.68263
H          0.79241        1.17812       -2.36142
H         -1.36890        1.95710       -3.07988
H         -1.48885        1.44791       -1.41853
H         -2.77115        3.48081       -1.72451
H         -1.45062        3.77769       -0.62047
H         -1.69140        5.68481       -2.08042
H         -0.15257        4.91864       -2.45807
H         -0.95950        3.65604       -4.58517
