24

C          0.93574        0.00316        0.00950
C          0.75714       -1.40196       -0.54220
O          1.09839       -2.38181        0.44645
C          2.42074       -2.58157        0.66793
O          3.32548       -2.03002        0.05010
N          2.70571       -3.36009        1.75366
C          1.83287       -4.17849        2.46327
N          0.67655       -4.62274        1.93586
C         -0.08954       -5.45969        2.66318
N          0.13967       -5.91924        3.89787
C          1.28589       -5.45152        4.41915
N          1.75150       -5.72054        5.67787
C          2.87027       -5.04006        5.78084
N          3.15893       -4.36360        4.62714
C          2.14721       -4.60877        3.73866
H          0.42223        0.11118        0.97060
H          0.54440        0.74763       -0.68927
H          1.99234        0.22598        0.18892
H         -0.29768       -1.55966       -0.79042
H          1.33529       -1.55588       -1.45990
H          3.66886       -3.30295        2.03761
H         -1.00161       -5.80488        2.18550
H          3.50377       -4.99256        6.65739
H          3.95170       -3.75388        4.48701
