39

C          1.35148       -0.09112        0.03473
C          0.57539       -0.14624        1.34707
C          0.88229        1.02571        2.27540
O         -0.82596       -0.41054        1.18392
C         -1.68201        0.58372        0.81394
C         -2.86958        0.66060        1.53904
C         -3.86545        1.55858        1.16196
C         -3.67220        2.39626        0.06187
C         -2.46799        2.36959       -0.64075
N         -2.13846        3.22944       -1.70577
C         -2.64794        4.43173       -2.13328
O         -2.22979        4.94945       -3.16607
C         -3.67982        5.15401       -1.37035
C         -4.90542        5.34741       -2.02796
C         -5.96836        5.95469       -1.36414
C         -5.80991        6.37534       -0.04689
C         -4.57612        6.22830        0.59225
C         -3.47835        5.64217       -0.06894
C         -2.16177        5.55809        0.66004
F         -1.85426        6.73422        1.28296
F         -2.17779        4.62588        1.65325
F         -1.07976        5.27339       -0.11071
C         -1.49867        1.41914       -0.28581
H          1.38473        0.92235       -0.37615
H          0.90931       -0.75250       -0.71696
H          2.39271       -0.39029        0.19477
H          0.93962       -1.04348        1.86420
H          0.55933        1.98033        1.84911
H          0.36056        0.90416        3.23063
H          1.95738        1.08985        2.47465
H         -3.02749        0.00513        2.39148
H         -4.79906        1.59912        1.71732
H         -4.50029        3.03102       -0.22843
H         -1.32222        2.97603       -2.25291
H         -5.03124        5.01238       -3.05649
H         -6.91949        6.09311       -1.87279
H         -6.64438        6.83285        0.48026
H         -4.46732        6.58091        1.61815
H         -0.60556        1.33719       -0.88928
