10

Cl         1.21631        0.73255        0.34742
C          2.82925        0.15909        0.11898
Cl         3.70602        0.78855       -1.23346
C          3.41117       -0.73499        0.92784
C          2.80726       -1.34824        2.09615
Cl         1.78179       -2.70759        1.72714
C          3.00838       -0.92540        3.35795
Cl         2.27597       -1.68250        4.73674
Cl         4.05795        0.41359        3.71921
H          4.42971       -1.05966        0.72367
