34

C          0.97467        0.03823        0.05471
C          0.52586       -1.13176       -0.83622
C          1.08302       -2.43592       -0.24825
C         -1.00573       -1.17714       -0.88272
C          1.05113       -0.91087       -2.25929
O          1.48184        0.15565       -2.68120
O          0.91405       -2.08153       -3.00692
C          1.36816       -2.02008       -4.33321
C          2.70446       -1.75922       -4.61888
C          3.13439       -1.72337       -5.94861
C          2.21668       -1.96954       -6.99114
N          2.50238       -1.93287       -8.34451
C          1.40795       -2.21309       -9.02628
S          1.28203       -2.21650      -10.80160
N          1.95436       -0.78288      -11.38910
O          2.13297       -3.28060      -11.28247
O         -0.11987       -2.13759      -11.15430
S          0.00891       -2.56381       -8.11585
C          0.89061       -2.27306       -6.66456
C          0.43973       -2.31143       -5.33513
H          0.62157       -0.08691        1.08445
H          0.58664        0.99444       -0.31519
H          2.06774        0.11795        0.08108
H          0.78445       -2.55788        0.79900
H          0.72233       -3.31476       -0.79442
H          2.17807       -2.45086       -0.29245
H         -1.41431       -0.26216       -1.32722
H         -1.36301       -2.01785       -1.48811
H         -1.43064       -1.28357        0.12151
H          3.41488       -1.56209       -3.82080
H          4.16911       -1.49706       -6.18760
H          2.68828       -1.01106      -12.06053
H          1.21556       -0.20299      -11.78739
H         -0.59271       -2.54413       -5.09738
