30

C          1.90245       -0.06954        0.60746
C          1.26071       -0.11081        1.99002
C          1.09717        1.25784        2.66680
C          0.35739        2.35796        1.89238
O         -1.07756        2.27523        1.92910
C         -1.63624        1.38793        1.07289
O         -1.02797        0.54078        0.44653
O         -2.97430        1.58606        1.01923
C         -3.73047        0.55800        0.35700
C         -3.73302        0.63137       -1.17659
C         -2.51327        0.07351       -1.92424
C         -2.15104       -1.36600       -1.57550
H          1.37246        0.58456       -0.08941
H          1.90436       -1.07241        0.16690
H          2.93826        0.27613        0.66813
H          0.29848       -0.63009        1.94614
H          1.89050       -0.73836        2.63282
H          0.59558        1.09949        3.62896
H          2.10604        1.62889        2.88699
H          0.59426        3.31219        2.37844
H          0.70501        2.46153        0.85932
H         -3.44451       -0.42795        0.73763
H         -4.76365        0.71279        0.69091
H         -4.60920        0.07553       -1.53340
H         -3.86734        1.67536       -1.48392
H         -2.72213        0.11481       -3.00049
H         -1.64796        0.72776       -1.78056
H         -2.94089       -2.05423       -1.88945
H         -1.22681       -1.65298       -2.08863
H         -1.98273       -1.51639       -0.50620
