21

C          1.06181        0.04488       -0.06454
C         -0.24204        0.04488       -0.06454
C         -1.76204        0.04488       -0.06454
N         -2.31880       -1.07497       -0.82386
C         -3.76641       -1.22368       -0.65184
C         -4.65856       -0.09628       -1.16107
C         -1.83834       -1.22812       -2.20040
C         -1.91415       -0.02094       -3.13039
H          2.12705        0.03796       -0.06475
H         -2.08221       -0.01985        0.98272
H         -2.10522        1.01118       -0.45033
H         -4.09181       -2.16371       -1.11420
H         -3.96976       -1.35597        0.41912
H         -4.68658       -0.06370       -2.25237
H         -5.68755       -0.26152       -0.82344
H         -4.34777        0.88254       -0.78608
H         -0.78903       -1.54800       -2.15901
H         -2.35359       -2.07160       -2.67696
H         -1.45496        0.87118       -2.69701
H         -1.37444       -0.24300       -4.05798
H         -2.94131        0.21802       -3.41097
