60

C          0.95335        0.02612        0.42637
C          0.50882        1.41875        0.85096
C          0.98794        2.53082       -0.08696
C          0.58341        2.36712       -1.55666
C         -0.93544        2.32468       -1.83782
C         -1.67389        3.60642       -1.39123
C         -1.25609        4.88353       -2.11116
C         -1.22965        2.01630       -3.32131
O         -0.74777        0.71261       -3.69805
C          0.43237        0.68422       -4.36281
O          1.15158        1.63932       -4.61363
C          0.81031       -0.68533       -4.74335
C         -0.09861       -1.63585       -4.99624
C          0.30492       -2.92304       -5.57748
O         -0.33526       -3.44633       -6.47573
O          1.41701       -3.40905       -4.97824
C          1.98499       -4.60606       -5.54622
C          1.63377       -5.86218       -4.72341
C          0.11348       -6.14295       -4.66489
C         -0.51399       -6.60695       -5.97424
C          2.39164       -7.10804       -5.23578
C          3.91759       -7.08233       -5.08293
C          4.44061       -6.89752       -3.65724
C          3.95374       -7.96312       -2.68733
H          0.46065       -0.28725       -0.49918
H          0.69429       -0.70433        1.19938
H          2.03637       -0.01263        0.27216
H         -0.58255        1.44116        0.94142
H          0.90684        1.62016        1.85283
H          0.63761        3.49632        0.29431
H          2.08404        2.57227       -0.04246
H          1.04149        3.17850       -2.13484
H          1.05170        1.44800       -1.92153
H         -1.35075        1.48966       -1.25898
H         -2.75155        3.46490       -1.54272
H         -1.54322        3.75261       -0.31316
H         -1.47056        4.83030       -3.18252
H         -1.81325        5.73668       -1.71008
H         -0.19139        5.09487       -1.97997
H         -2.31468        1.99208       -3.47718
H         -0.83630        2.79122       -3.98820
H          1.87009       -0.83388       -4.91715
H         -1.16631       -1.46397       -4.93448
H          1.71683       -4.71906       -6.60260
H          3.06745       -4.44341       -5.52239
H          1.92903       -5.66433       -3.68520
H         -0.07101       -6.91850       -3.91015
H         -0.41421       -5.25304       -4.30538
H         -0.20000       -7.62518       -6.22344
H         -1.60495       -6.61393       -5.88317
H         -0.25167       -5.95920       -6.81363
H          2.00542       -8.00082       -4.72840
H          2.17300       -7.25045       -6.30204
H          4.31175       -8.02758       -5.47867
H          4.34034       -6.29631       -5.71885
H          5.53661       -6.92952       -3.68708
H          4.17210       -5.90568       -3.27832
H          4.19087       -8.96684       -3.05411
H          4.43812       -7.83494       -1.71406
H          2.87309       -7.89832       -2.52955
