32

C          1.15773        0.39989        0.13657
O          1.05385       -0.20631       -1.14954
C          1.33066        0.67792       -2.16001
C          0.23167        1.16208       -2.87427
C          0.40837        1.88233       -4.05088
N         -0.63991        2.26923       -4.90910
C         -1.92577        1.85561       -5.09887
O         -2.60398        2.47139       -5.92968
C         -2.54103        0.70859       -4.34187
C         -1.93613       -0.63900       -4.64881
C         -1.53870       -1.52465       -3.49447
O         -1.77585       -1.02945       -5.80710
C          1.71758        2.25716       -4.42870
O          1.80740        3.04457       -5.55340
C          3.07808        3.61843       -5.84283
C          2.81834        1.78862       -3.70134
C          2.62511        0.96529       -2.58947
Cl         4.01304        0.30449       -1.80811
H          0.62294       -0.24123        0.84465
H          0.69585        1.39260        0.16387
H          2.20147        0.45289        0.45676
H         -0.74436        0.95561       -2.46593
H         -0.35519        2.92476       -5.63562
H         -2.56600        0.93062       -3.27482
H         -3.59723        0.63871       -4.63435
H         -1.99335       -2.51046       -3.61408
H         -0.44981       -1.62129       -3.47792
H         -1.87567       -1.10899       -2.54169
H          3.45403        4.19969       -4.99389
H          3.79581        2.84904       -6.14482
H          2.95176        4.30497       -6.68548
H          3.83476        2.01102       -4.00840
