27

C          1.27132       -0.79629        1.31589
C          0.45324       -1.64863        0.37210
S          1.32077       -2.68585       -0.86223
C          3.01467       -1.99837       -0.95324
C          3.31475       -1.41099       -2.33314
S          2.76316        0.29724       -2.53378
P          0.64316        0.29724       -2.53378
S          0.59320        2.14666       -1.74072
O          0.59253        0.37683       -4.18829
C          0.79184       -0.81551       -4.92605
O         -1.08684        0.29725       -2.53378
C         -1.73414       -0.90467       -2.89702
H          1.98053       -1.39610        1.89287
H          0.60280       -0.29710        2.02566
H          1.80917       -0.00539        0.78435
H         -0.16498       -2.33564        0.96163
H         -0.24708       -1.01272       -0.17507
H          3.26451       -1.30684       -0.15105
H          3.67726       -2.86297       -0.81526
H          4.40283       -1.39158       -2.46719
H          2.91483       -2.03114       -3.13970
H          1.78798       -0.80200       -5.37562
H          0.69447       -1.70119       -4.29195
H          0.04626       -0.86776       -5.72308
H         -1.92049       -0.91033       -3.97350
H         -1.13654       -1.77407       -2.61715
H         -2.69413       -0.95515       -2.37723
