46

C          1.19508        0.19702       -0.37824
C          0.99617       -1.29784       -0.57299
C          1.35335       -2.12677        0.66329
C          0.53151       -1.82108        1.92022
C         -0.98810       -1.92171        1.75015
C         -1.50771       -3.28389        1.27496
C         -1.15127       -4.47576        2.17093
C         -1.61843       -4.35347        3.62318
C         -3.14018       -4.45084        3.79846
C         -3.63261       -5.83402        4.23231
C         -3.16718       -6.29914        5.61476
C         -4.00450       -5.75095        6.75409
O         -5.01500       -6.33778        7.13533
N         -3.66455       -4.58752        7.37399
C         -2.50313       -3.72724        7.19576
C         -2.92012       -2.27907        6.92693
O         -3.48178       -1.69510        8.09906
H          0.53596        0.59445        0.39902
H          0.96883        0.72947       -1.30753
H          2.23020        0.42105       -0.10233
H         -0.03789       -1.49161       -0.87769
H          1.62817       -1.62851       -1.40588
H          1.25120       -3.18925        0.41256
H          2.41419       -1.97449        0.89925
H          0.85683       -2.49589        2.72121
H          0.77457       -0.81170        2.27370
H         -1.46374       -1.65826        2.70216
H         -1.32593       -1.15619        1.04182
H         -2.59634       -3.21669        1.16956
H         -1.12817       -3.48668        0.26667
H         -1.57187       -5.38856        1.73168
H         -0.06338       -4.61285        2.16697
H         -1.10924       -5.13089        4.20091
H         -1.27065       -3.40411        4.04413
H         -3.46852       -3.71498        4.53430
H         -3.65306       -4.17808        2.87007
H         -4.72974       -5.83124        4.20405
H         -3.30338       -6.56638        3.48504
H         -3.28593       -7.39052        5.65989
H         -2.10496       -6.12769        5.79661
H         -4.25819       -4.40014        8.17337
H         -1.93130       -3.78596        8.12753
H         -1.87435       -4.09423        6.38649
H         -2.04669       -1.68430        6.64395
H         -3.65989       -2.20446        6.12391
H         -4.37606       -2.06430        8.20032
