28

O          1.17403       -0.34921       -0.19890
C          2.33891       -0.03086        0.02631
N          3.23072       -0.06513       -1.01331
C          4.63584       -0.10236       -1.04588
C          5.43151       -0.45062        0.05017
C          6.82552       -0.48532       -0.06903
C          7.42711       -0.18617       -1.28852
Cl         9.13987       -0.22894       -1.43217
C          6.64560        0.13283       -2.39489
C          5.25281        0.16315       -2.27503
N          2.81669        0.45694        1.21314
C          2.15046        0.50363        2.45303
C          0.95900       -0.17510        2.71589
C          0.35882       -0.09382        3.97755
C          0.94836        0.66243        4.99154
Cl         0.15455        0.71841        6.52391
C          2.14630        1.33621        4.73954
Cl         2.94449        2.28776        5.94201
C          2.74454        1.25268        3.47586
H          2.75199       -0.15704       -1.90235
H          4.99806       -0.75791        0.99756
H          7.43250       -0.76522        0.78851
H          7.11025        0.35576       -3.35192
H          4.65994        0.41566       -3.15148
H          3.65593        1.01266        1.12542
H          0.47237       -0.78450        1.95871
H         -0.57126       -0.62833        4.15786
H          3.67674        1.78301        3.29738
