30

C         -1.30222       -0.60896        1.36389
C         -0.69046       -0.02606        0.08452
C         -1.74153        0.13817       -1.00505
O          0.20034       -1.06659       -0.40899
C          1.50239       -0.79307        0.13032
C          2.55676       -1.45454       -0.68028
C          3.92334       -1.56971       -0.50691
C          4.40528       -2.33849       -1.59319
C          3.30735       -2.64465       -2.36081
O          2.18429       -2.10934       -1.81934
C          1.56279        0.71242        0.09274
N          0.18767        1.13377        0.31036
C         -0.00952        2.46787        0.61051
O          0.99625        3.18284        0.78152
C         -1.35968        3.17129        0.70107
Cl        -2.07389        3.40650       -0.89631
Cl        -2.45702        2.47095        1.87764
H         -1.55989       -1.66557        1.21951
H         -0.59488       -0.56982        2.19958
H         -2.21698       -0.10477        1.67031
H         -1.31234        0.60762       -1.89712
H         -2.12541       -0.83829       -1.32469
H         -2.59803        0.72508       -0.66897
H          1.53070       -1.17014        1.15960
H          4.50061       -1.15446        0.30779
H          5.42494       -2.63766       -1.79089
H          3.16279       -3.20640       -3.27307
H          1.86266        1.09292       -0.89222
H          2.24861        1.11834        0.84396
H         -1.15897        4.18065        1.07495
