30

C          0.83312       -0.06546        0.24075
N          0.46458       -0.73531       -1.00143
C         -0.91269       -1.21461       -0.94264
C          0.84275       -0.05274       -2.27283
C         -0.26686        0.79505       -2.94810
C         -0.57323        2.16190       -2.33826
C          0.38912        3.30347       -2.53014
C          1.51057        3.39375       -3.26116
C          2.11428        2.35611       -4.15749
C          2.83605        1.20949       -3.44811
C          2.21588        0.65743       -2.15952
H          0.49622       -0.64382        1.10974
H          0.40789        0.93807        0.32203
H          1.92071       -0.00248        0.35026
H         -1.63021       -0.39552       -0.81737
H         -1.17333       -1.78462       -1.84081
H         -1.04615       -1.90033       -0.09805
H          1.00828       -0.88650       -2.97108
H         -0.05595        0.89090       -4.01592
H         -1.20416        0.22535       -2.96024
H         -0.74691        2.04364       -1.26365
H         -1.53345        2.49658       -2.75320
H          0.10774        4.19489       -1.96611
H          2.04977        4.34115       -3.23218
H          2.84524        2.86022       -4.80477
H          1.37006        1.98066       -4.86488
H          3.84376        1.56364       -3.18947
H          2.98448        0.38967       -4.16144
H          2.17550        1.46352       -1.41778
H          2.93792       -0.07089       -1.76305
