48

C          1.25299       -0.21387        0.50849
C          0.50771        0.29201       -0.48175
C         -0.98687        0.43040       -0.42065
C         -1.47737        1.85992       -0.66411
C         -1.21147        2.37193       -2.07502
O         -1.84683        1.51572       -3.03825
C         -1.05054        1.01548       -4.01841
O          0.17703        0.98731       -3.99028
C         -1.85610        0.59981       -5.26982
C         -3.38219        0.46296       -5.12043
C         -4.20730        1.73742       -5.06643
N         -1.39729        1.37012       -6.45506
C         -0.39962        0.70007       -7.31319
C         -1.03324        0.13439       -8.53359
C         -1.87179       -0.93236       -8.78787
C         -2.12104       -0.92439      -10.18471
C         -1.40558        0.13029      -10.69707
O         -0.71869        0.75384       -9.70955
C         -1.39087        2.76810       -6.30144
O         -1.63762        3.38382       -5.27100
N         -1.00310        3.51475       -7.41680
C         -1.43771        3.42409       -8.71929
C         -0.75133        4.39179       -9.41224
N          0.03609        5.12631       -8.56871
C         -0.17776        4.61639       -7.37609
H          0.81179       -0.55884        1.43796
H          2.32972       -0.30204        0.39951
H          1.00603        0.60103       -1.39952
H         -1.43227       -0.24885       -1.15648
H         -1.35466        0.10653        0.56079
H         -2.56067        1.87477       -0.48990
H         -1.02529        2.54639        0.06212
H         -1.66869        3.36240       -2.18452
H         -0.13949        2.50327       -2.25622
H         -1.53734       -0.44192       -5.42663
H         -3.75533       -0.13327       -5.96344
H         -3.59626       -0.12225       -4.21630
H         -4.13462        2.30048       -6.00053
H         -5.26320        1.48230       -4.92258
H         -3.91390        2.38392       -4.23612
H          0.39983        1.39964       -7.57904
H          0.08860       -0.10291       -6.74822
H         -2.26205       -1.62932       -8.06008
H         -2.74344       -1.60165      -10.75246
H         -1.28020        0.54718      -11.68733
H         -2.18981        2.71168       -9.02357
H         -0.80436        4.61452      -10.47003
H          0.26549        4.95843       -6.44935
