25

C          1.27182        0.13714        0.01176
C          0.59432        0.25938       -1.35806
C          1.16278       -0.77941       -2.32541
C         -0.94735        0.20661       -1.29532
O         -1.42576        1.48498       -0.79250
C         -2.23653        1.35184        0.29632
O         -2.78304        2.24619        0.90956
C         -2.31379       -0.07288        0.57921
C         -2.99147       -0.69716        1.61256
C         -2.90339       -2.08577        1.69425
C         -2.16033       -2.80510        0.74373
C         -1.49216       -2.14555       -0.29500
C         -1.56545       -0.76336       -0.35551
H          1.13841       -0.86070        0.44302
H          0.87575        0.87316        0.71842
H          2.34976        0.31004       -0.07736
H          0.86962        1.24716       -1.75325
H          0.95131       -1.80219       -2.00378
H          0.74373       -0.64224       -3.32804
H          2.25029       -0.67485       -2.40659
H         -1.37452        0.09027       -2.29832
H         -3.56144       -0.12070        2.33442
H         -3.41114       -2.61496        2.49752
H         -2.10095       -3.88917        0.82030
H         -0.92428       -2.71788       -1.02128
