13

S          2.22150       -0.01182        0.18686
C          0.44437        0.00593        0.08256
C         -0.25460       -1.20420        0.04613
C         -1.64932       -1.21141       -0.02731
C         -2.35180       -0.00812       -0.06279
C         -1.66100        1.20193       -0.02390
C         -0.26583        1.20989        0.05000
H          2.42132        1.28565       -0.08331
H          0.28040       -2.15065        0.07498
H         -2.18588       -2.15625       -0.05538
H         -3.43743       -0.01373       -0.11884
H         -2.20862        2.14070       -0.04903
H          0.25255        2.16423        0.08425
