25

N          1.03430        0.00432        0.23510
C          0.57401        0.00833       -1.15650
C          1.01749       -1.24777       -1.93369
O          0.46100       -2.41456       -1.31913
C          0.55498       -1.23782       -3.39620
C          1.12324       -0.10863       -4.26662
C          2.65670       -0.03243       -4.32004
N          3.24827       -1.22881       -4.94522
C          3.11553        1.22790       -5.05955
O          3.92738        2.03801       -4.63273
O          2.59857        1.37165       -6.29450
H          0.54657       -0.71419        0.76550
H          2.03181       -0.19370        0.28387
H         -0.51957        0.07736       -1.14791
H          0.96189        0.91205       -1.63531
H          2.10587       -1.35923       -1.88644
H          0.80879       -2.45189       -0.41275
H          0.79381       -2.20798       -3.85068
H         -0.54173       -1.18269       -3.42347
H          0.72508       -0.23391       -5.28282
H          0.72499        0.85298       -3.91947
H          3.05365        0.05947       -3.30301
H          4.26540       -1.15489       -4.91872
H          3.00409       -2.06210       -4.41374
H          3.05065        2.16119       -6.65520
