27

O          1.19699        0.38757        0.63458
S          2.50181       -0.00216        0.12975
O          2.69910       -0.19218       -1.29012
N          3.54067        1.26971        0.57310
C          4.33417        1.19285        1.76675
C          3.87785        1.84239        2.92229
C          4.61438        1.76792        4.10777
C          5.80372        1.04149        4.14721
C          6.26801        0.39906        2.99823
C          5.54133        0.47759        1.80735
Cl         6.18953       -0.29574        0.40598
C          2.92391       -1.51710        0.95549
C          3.09935       -2.67570        0.18704
C          3.36918       -3.89396        0.81321
C          3.48687       -3.95315        2.20101
C          3.29102       -2.80529        2.96839
C          2.97050       -1.59530        2.34994
H          2.92724        2.08783        0.60799
H          2.94971        2.40947        2.91713
H          4.26108        2.27718        5.00253
H          6.37550        0.98106        5.07096
H          7.20142       -0.15730        3.03424
H          3.00023       -2.64700       -0.89657
H          3.48167       -4.79749        0.21835
H          3.71374       -4.89954        2.68617
H          3.37267       -2.85735        4.05129
H          2.76008       -0.72999        2.96909
