63

C          0.52955       -0.20612        1.90764
C          0.12632        1.00654        1.05490
C          0.50755        0.91078       -0.53649
C         -0.69220        0.84891       -2.25392
C         -1.41892        1.81735       -3.33313
O         -0.93503        2.20144       -4.38612
O         -2.73319        1.99902       -3.11305
C         -1.30340        1.38024        1.12300
C         -1.44935        2.90438        1.29050
C         -0.62031        3.57529        0.18625
C         -0.77003        2.65293       -1.03963
C          0.83989        2.48265       -2.09447
C          1.12735        3.46241       -3.20685
O          0.45978        4.47914       -3.37284
C          2.44056        3.20287       -3.92695
C          2.34210        1.93588       -4.77743
C          3.46124        1.91865       -5.84257
C          4.68126        1.16904       -5.37933
O          5.79680        1.67943       -5.33720
C          4.43398       -0.25317       -4.97547
C          3.51799       -0.19571       -3.76944
C          2.16638        0.57217       -3.98850
C          1.31366       -0.33284       -4.92606
C          1.55231        0.73481       -2.50914
C          0.62761       -0.86777       -1.86917
C         -0.89979       -0.71134       -0.69627
O         -1.44629       -1.72257       -0.25438
C         -1.62105        1.06099       -0.32004
C         -3.15283        1.04158       -0.47218
H          0.20147       -1.16486        1.50759
H          0.12921       -0.11253        2.92268
H          1.62200       -0.25014        1.99133
H          0.74057        1.80445        1.49988
H          1.28843        1.66141       -0.43730
H          1.23759        0.10049       -0.38684
H         -0.23199        0.35151       -3.10943
H         -1.54685        0.13910       -2.24064
H         -3.04063        2.52542       -3.88242
H         -1.87699        0.81617        1.86356
H         -2.50164        3.19829        1.20325
H         -1.10335        3.23151        2.27696
H          0.42667        3.69193        0.48014
H         -0.99996        4.58204       -0.02126
H         -1.50531        3.20329       -1.63587
H          1.60291        2.94624       -1.42984
H          2.63569        4.07852       -4.55799
H          3.25513        3.14206       -3.19721
H          1.42108        2.08505       -5.35974
H          3.75956        2.93052       -6.13834
H          3.10924        1.42044       -6.75367
H          5.38192       -0.73533       -4.71564
H          4.00148       -0.80455       -5.81540
H          4.08772        0.28242       -2.96181
H          3.30872       -1.21976       -3.43178
H          0.30753        0.06393       -5.08460
H          1.75939       -0.40806       -5.92417
H          1.22601       -1.35662       -4.55606
H          2.44576        0.75070       -1.85942
H          1.38366       -1.49542       -1.37036
H          0.27037       -1.45583       -2.72489
H         -3.56991        2.04926       -0.54559
H         -3.46940        0.46655       -1.34664
H         -3.62206        0.53964        0.38224
