24

N          1.06077        0.16222       -0.00225
S          0.46629        1.23019        1.14879
O          1.21938        2.45049        0.97053
O         -0.97383        1.18935        1.07551
C          0.91695        0.64339        2.75815
C          1.45707        1.28601        3.85918
C          1.71482        0.39178        4.94245
C          1.33571       -0.89398        4.61460
S          0.67381       -1.02440        3.05791
S          1.44639       -2.35435        5.60748
O          2.28501       -3.27680        4.87212
O          0.08976       -2.65695        6.00936
C          2.35855       -1.72735        7.01486
C          1.99929       -0.28095        7.36787
C          2.33681        0.73422        6.26159
H          0.39436        0.08984       -0.77221
H          1.98344        0.46511       -0.31459
H          1.67292        2.34919        3.86209
H          3.42460       -1.81407        6.78195
H          2.13221       -2.39235        7.85460
H          0.93048       -0.21806        7.60662
H          2.54635        0.00394        8.27471
H          2.00012        1.72854        6.57857
H          3.42480        0.78700        6.13181
