16

C          0.64255       -0.01162        0.13226
O          0.79246        0.46320        1.47137
C          1.07195       -0.57525        2.32042
C         -0.00328       -1.17628        2.98048
C          0.22401       -2.21600        3.88243
C          1.52640       -2.64602        4.13582
C          2.60433       -2.02804        3.49758
C          2.38004       -0.98330        2.59684
Br         3.88404       -0.14450        1.80376
H          0.05974        0.73024       -0.42198
H          0.10854       -0.96762        0.07996
H          1.62023       -0.10227       -0.35048
H         -1.01645       -0.83045        2.79406
H         -0.61345       -2.68498        4.39308
H          1.70423       -3.45420        4.84121
H          3.61548       -2.36096        3.71771
