29

C          1.20238        0.15837        0.29531
C          0.48619        0.62006       -0.93501
O         -0.61212       -0.08319       -1.24248
N          0.89643        1.62959       -1.60365
C          0.18533        2.14262       -2.79589
C          0.51592        1.36469       -4.08740
C          0.11164       -0.09336       -4.14058
C          1.09196       -1.09590       -4.16188
C          0.72454       -2.44239       -4.10412
Br         2.08745       -3.76088       -4.11942
C         -0.62103       -2.80780       -4.01152
O         -0.98700       -4.12211       -3.88405
C         -1.60335       -1.81839       -4.03346
Br        -3.44561       -2.24187       -3.87297
C         -1.24029       -0.47204       -4.13018
C         -1.30014        2.44511       -2.63267
O         -2.04891        2.76610       -3.54456
O         -1.78579        2.41972       -1.37671
H          1.06989       -0.91644        0.44546
H          0.80846        0.69700        1.16137
H          2.27281        0.36206        0.20111
H         -0.77936       -0.81911       -0.63326
H          0.61202        3.14625       -2.93943
H          0.05703        1.86611       -4.94978
H          1.59987        1.43472       -4.25263
H          2.14426       -0.82173       -4.20193
H         -0.17477       -4.65927       -3.89733
H         -2.01976        0.28577       -4.14508
H         -2.74054        2.59463       -1.50399
