25

C          1.07206       -0.02412        0.05620
C          0.54379       -0.71440        1.33148
C          1.04371        0.05894        2.57167
C         -0.99709       -0.59599        1.31609
C          1.05458       -2.16489        1.37393
C          0.19578       -3.27625        1.31255
C          0.69383       -4.58455        1.34903
C          2.06296       -4.81470        1.44720
C          2.92474       -3.72892        1.50506
O          4.27498       -3.89819        1.59996
C          2.43639       -2.42468        1.46696
H          0.70488        1.00623       -0.01676
H          0.74781       -0.55830       -0.84486
H          2.16658        0.02131        0.03463
H          0.65299        1.08329        2.58257
H          0.72154       -0.43093        3.49817
H          2.13593        0.13579        2.60200
H         -1.43085       -1.07040        0.42819
H         -1.44490       -1.05805        2.20371
H         -1.31259        0.45426        1.30376
H         -0.88116       -3.15543        1.23350
H          0.00479       -5.42408        1.29959
H          2.43273       -5.83398        1.47482
H          4.46459       -4.85017        1.62151
H          3.15434       -1.60930        1.50890
