54

C          0.59889        0.10770        0.54809
N          0.19424       -1.14244       -0.08192
C         -0.39381       -2.12191        0.80615
C          0.74069       -1.39017       -1.31288
O          1.47250       -0.57023       -1.86240
N          0.52631       -2.52830       -1.99931
C         -0.32318       -3.69952       -1.90872
C         -1.55366       -3.71991       -2.87822
C         -2.81544       -3.65912       -1.96732
C         -1.65215       -2.51680       -3.85918
C         -0.85917       -2.59436       -5.17659
N          0.54979       -2.25376       -5.05420
C          1.31419       -1.15210       -5.13752
O          2.52390       -1.38827       -5.04329
N          0.82531        0.10236       -5.33844
C         -0.55558        0.51638       -5.48351
C          1.79371        1.18941       -5.39404
C         -1.03275       -3.96443       -5.84889
C         -0.80291       -5.19837       -4.94729
C          0.68686       -5.44878       -4.65464
C         -1.29344       -6.44331       -5.72739
C         -1.64095       -5.07040       -3.65260
H         -0.16599        0.43599        1.25750
H          0.73799        0.90260       -0.19137
H          1.54654       -0.05758        1.07100
H         -1.38063       -2.39497        0.42819
H          0.25794       -2.99586        0.88071
H         -0.53022       -1.70334        1.80846
H          1.04886       -2.45361       -2.86654
H          0.33467       -4.55002       -2.10455
H         -0.64450       -3.86016       -0.88233
H         -2.83505       -4.49707       -1.25998
H         -2.84622       -2.72663       -1.39445
H         -3.73997       -3.71308       -2.55455
H         -2.70664       -2.42896       -4.16195
H         -1.43881       -1.58394       -3.32614
H         -1.28870       -1.86965       -5.87344
H          1.19081       -3.03150       -5.01421
H         -0.65391        1.58530       -5.26632
H         -0.86232        0.33844       -6.51846
H         -1.20866       -0.01324       -4.79650
H          1.74665        1.73974       -4.44914
H          2.81806        0.83775       -5.54375
H          1.53963        1.86015       -6.22086
H         -0.39010       -4.02421       -6.73748
H         -2.06568       -4.00504       -6.22472
H          0.83069       -6.40894       -4.14561
H          1.26874       -5.47930       -5.58319
H          1.13917       -4.69119       -4.01739
H         -2.35364       -6.36122       -5.99124
H         -0.72998       -6.56999       -6.65949
H         -1.16905       -7.35693       -5.13500
H         -1.40693       -5.90296       -2.97458
H         -2.69275       -5.22248       -3.93731
