51

C          1.50542        1.24087       -0.20856
C          0.20232        2.08082       -0.18263
C         -0.99389        1.16265        0.11120
C         -1.05540        0.77677        1.58515
C         -1.36394        1.98888        2.48978
C         -0.72025        3.31115        1.97983
C         -0.20820        4.21742        3.10597
C         -1.22152        4.30704        4.22167
C         -1.46300        2.96653        4.92504
C         -2.84227        3.03150        5.59381
C         -3.06904        1.81480        6.45035
O         -3.60255        1.89920        7.55708
C         -2.64389        0.48427        5.88536
C         -2.31371        0.59234        4.40012
C         -1.24804        1.68314        4.03689
C          0.14975        1.09478        4.37272
C          0.35717        3.21436        0.87270
C          0.41451        4.53126        0.05349
C          0.79030        4.11814       -1.35568
C          0.00680        2.82599       -1.52890
O          0.43379        2.09519       -2.66332
H          1.45091        0.43621       -0.94960
H          1.71077        0.77942        0.76269
H          2.37616        1.85946       -0.45391
H         -1.93700        1.65344       -0.16046
H         -0.93264        0.25611       -0.50389
H         -0.11616        0.29669        1.86823
H         -1.83661        0.01792        1.71167
H         -2.44169        2.16758        2.33689
H         -1.56730        3.85162        1.52775
H          0.75337        3.86528        3.49472
H         -0.02858        5.22645        2.71549
H         -0.87894        5.04145        4.96207
H         -2.16019        4.70338        3.81391
H         -0.73299        2.91936        5.74739
H         -2.90095        3.91676        6.23904
H         -3.64756        3.09709        4.85442
H         -3.47904       -0.21405        6.01402
H         -1.78758        0.11761        6.45752
H         -1.99022       -0.39407        4.04525
H         -3.24991        0.80982        3.86804
H          0.28735        0.09433        3.94950
H          0.96101        1.72428        3.99837
H          0.28832        0.98427        5.45445
H          1.33185        3.09572        1.36599
H          1.12543        5.24827        0.47440
H         -0.56712        5.02174        0.02371
H          1.87015        3.95762       -1.44771
H          0.51064        4.86878       -2.10176
H         -1.05182        3.06974       -1.68106
H          1.40211        2.15747       -2.72520
