23

C          0.97844        0.05219        0.16466
C          0.63483       -0.83416        1.32309
C          0.88812       -2.19652        1.26154
C          0.57486       -3.00807        2.35934
C          0.86085       -4.48030        2.23677
C          0.01022       -2.41573        3.50642
C         -0.33685       -3.25161        4.70776
C         -0.20975       -1.02818        3.48124
C         -0.80502       -0.28849        4.64510
N          0.09708       -0.24896        2.41248
H          0.60806        1.06925        0.32912
H          0.52374       -0.32843       -0.75530
H          2.06427        0.09885        0.03670
H          1.32610       -2.62675        0.36562
H          0.27348       -4.90546        1.41595
H          1.92520       -4.63712        2.03144
H          0.61780       -5.04430        3.14012
H         -1.07635       -4.01211        4.43591
H          0.56258       -3.73903        5.09857
H         -0.76470       -2.67224        5.52935
H         -1.80607       -0.66935        4.86964
H         -0.16472       -0.38476        5.52731
H         -0.90059        0.77929        4.41992
