24

C          1.21516       -0.03993       -0.08677
C          0.61201        0.24871       -1.46210
C          1.05017       -0.83078       -2.45559
C         -0.92567        0.32510       -1.41918
C         -1.50754        1.43250       -0.53334
C         -1.07539        2.86017       -0.88630
C         -1.48289        3.28911       -2.28956
O         -1.67224        3.75796        0.05126
H          0.81854       -0.97073        0.33290
H          1.00526        0.76925        0.61906
H          2.30412       -0.13801       -0.15366
H          1.01349        1.20301       -1.82190
H          0.68582       -1.81949       -2.15677
H          0.66513       -0.61511       -3.45794
H          2.14239       -0.87760       -2.52242
H         -1.31037        0.44737       -2.43914
H         -1.32273       -0.63537       -1.06457
H         -2.60340        1.37097       -0.57810
H         -1.26461        1.23605        0.51836
H          0.00739        2.96932       -0.77229
H         -2.56648        3.20304       -2.42660
H         -1.22949        4.34221       -2.45370
H         -0.98371        2.69331       -3.05860
H         -2.63805        3.68878       -0.04212
