33

O          1.41205        0.25491        0.17846
C          2.63936        0.25691        0.02204
C          3.26894        1.52374       -0.41737
C          4.29842        1.56734       -1.36178
C          4.86181        2.79715       -1.71220
C          4.38740        3.97891       -1.13874
C          3.33318        3.94184       -0.22835
C          2.76573        2.71817        0.12264
N          3.35963       -0.92486        0.16271
O          2.48905       -2.05691        0.25860
C          4.72997       -1.24490        0.37158
C          5.13776       -2.50728       -0.11067
C          6.45645       -2.93671       -0.02311
C          7.40764       -2.10497        0.54702
C          7.04857       -0.85706        1.07040
C          8.04756       -0.06569        1.66154
C          7.74334        1.15824        2.24715
C          6.42523        1.58039        2.29081
C          5.41978        0.79015        1.72330
C          5.69409       -0.41618        1.03071
H          4.67189        0.65974       -1.82784
H          5.67512        2.83535       -2.43301
H          4.83526        4.93221       -1.40893
H          2.95332        4.86222        0.20828
H          1.93904        2.69307        0.83059
H          1.61608       -1.62050        0.36553
H          4.41775       -3.16786       -0.59166
H          6.73887       -3.91364       -0.40603
H          8.43679       -2.45472        0.60409
H          9.08151       -0.40575        1.67969
H          8.52924        1.76111        2.69362
H          6.16841        2.51814        2.77674
H          4.40009        1.13051        1.86262
