41

C          1.48136       -0.77306       -0.00461
C          0.83212        0.33596        0.79854
O          1.16140        1.58366        0.16302
C         -0.69766        0.24449        0.79858
N         -1.32439       -0.48135        1.93353
S         -3.00116       -0.69776        1.96852
O         -3.41175       -0.93197        0.60335
O         -3.21292       -1.69862        2.98925
C         -3.84127        0.81203        2.51330
C         -3.19292        1.69798        3.55457
C         -1.88500        2.39315        3.21965
S         -1.86517        3.85688        2.22367
O         -2.81712        4.77632        2.81774
O         -0.46224        4.22500        2.12778
C         -2.38440        3.70001        0.51259
C         -2.36934        4.87067       -0.25265
C         -2.66646        4.83358       -1.62523
C         -2.93126        3.61755       -2.26903
C         -3.21572        3.58620       -3.67591
N         -3.46708        3.53862       -4.80387
C         -2.91735        2.44429       -1.52238
C         -3.02152        1.14911       -2.14400
N         -3.03080        0.10025       -2.63525
C         -2.70543        2.51424       -0.13538
H          1.12169       -0.76329       -1.04048
H          1.27978       -1.75276        0.43317
H          2.56465       -0.61852       -0.05631
H          1.22407        0.37498        1.81972
H          2.11821        1.73583        0.26141
H         -0.98201        1.27771        0.92410
H         -1.06777       -0.10903       -0.16656
H         -0.92234       -1.41808        2.05357
H         -4.16937        1.39223        1.65350
H         -4.78586        0.44083        2.93609
H         -3.92540        2.46234        3.84762
H         -3.03295        1.08321        4.44987
H         -1.51691        2.77258        4.18738
H         -1.09778        1.71457        2.91541
H         -2.10952        5.82150        0.21329
H         -2.65970        5.76265       -2.19303
H         -2.75047        1.58121        0.38318
