15

O          1.16882       -0.21285       -0.36705
C          2.32032       -0.10974        0.02848
O          3.13094        0.92047       -0.32862
C          3.00490       -1.03686        0.89635
C          2.66006       -2.29579        1.34344
C          3.71302       -2.72970        2.18373
C          4.64008       -1.70396        2.23042
C          5.87764       -1.54680        2.94675
O          6.62959       -0.58246        2.94987
O          6.16620       -2.63955        3.68872
O          4.21997       -0.67967        1.42021
H          4.01427        0.81633        0.08448
H          1.75457       -2.82931        1.08435
H          3.78781       -3.67055        2.71321
H          7.00939       -2.39936        4.12592
