21

C          1.25351       -0.05266        0.15071
C          0.58259       -1.42944        0.17685
C          1.00428       -2.17752        1.44446
C         -0.95268       -1.33294        0.11608
C         -1.44716       -0.76323       -1.17183
N         -1.55984        0.51334       -1.47445
C         -2.04582        0.55291       -2.75437
C         -2.24979       -0.71700       -3.23482
N         -1.86791       -1.54766       -2.21821
H          0.86797        0.59239        0.94755
H          1.08932        0.45207       -0.80628
H          2.33669       -0.14470        0.28490
H          0.94350       -2.00069       -0.68846
H          0.67218       -1.65022        2.34548
H          0.57646       -3.18531        1.46344
H          2.09386       -2.27776        1.49369
H         -1.38781       -2.33133        0.25442
H         -1.32525       -0.71614        0.94342
H         -2.22408        1.49388       -3.25830
H         -2.62074       -1.08869       -4.17892
H         -1.89019       -2.55733       -2.22748
