48

C          0.94319       -0.46161        0.09561
C          0.31479        0.42401        1.17262
C          1.01981        1.80372        1.29095
N          0.59544        2.86428        0.35469
C          1.09722        4.16513        0.81264
C          1.04122        2.63266       -1.01888
C         -1.21660        0.61381        1.06736
N         -1.96858       -0.66704        1.12358
C         -2.14757       -1.44343       -0.05065
C         -2.13977       -0.83136       -1.32594
C         -2.36134       -1.53862       -2.51151
C         -2.61351       -2.89721       -2.46409
C         -2.62854       -3.53798       -1.23181
C         -2.38625       -2.84052       -0.02183
C         -2.41160       -3.71416        1.21917
C         -1.84521       -3.14696        2.51467
C         -2.71957       -2.03196        3.01193
C         -3.51301       -2.20162        4.15814
C         -4.35568       -1.18065        4.59077
C         -4.41643        0.01185        3.87778
C         -3.62859        0.18193        2.73739
C         -2.75925       -0.82833        2.29091
H          0.63227       -0.19250       -0.91414
H          0.67498       -1.51106        0.25560
H          2.03671       -0.40956        0.13715
H          0.50977       -0.09301        2.12403
H          0.80091        2.15568        2.30935
H          2.10976        1.67207        1.25442
H          2.19233        4.20220        0.83000
H          0.73337        4.96877        0.16195
H          0.72465        4.39266        1.81762
H          2.11618        2.43139       -1.08112
H          0.49238        1.80649       -1.47436
H          0.82184        3.50191       -1.65070
H         -1.48499        1.25426        1.91862
H         -1.49367        1.21270        0.19704
H         -1.99145        0.23749       -1.43656
H         -2.35248       -1.01580       -3.46340
H         -2.80229       -3.45459       -3.37633
H         -2.83129       -4.60796       -1.20680
H         -3.45093       -4.03220        1.38129
H         -1.83309       -4.62143        0.99631
H         -0.81415       -2.79528        2.38603
H         -1.80185       -3.94709        3.26448
H         -3.48739       -3.13800        4.71062
H         -4.97465       -1.32068        5.47246
H         -5.08539        0.80573        4.19737
H         -3.72342        1.10731        2.17459
