20

C          1.06197        0.03519        0.05261
C          0.31975        0.00885       -1.06174
C         -1.14630        0.07975       -1.07559
C         -1.85270       -0.69496       -2.00654
C         -3.24733       -0.63878       -2.06669
C         -3.93929        0.20937       -1.19906
S         -5.70407        0.25707       -1.29633
O         -6.06273        0.86281       -2.55920
O         -6.20614       -1.04290       -0.90965
O         -6.18682        1.27750       -0.14253
C         -3.25339        1.00203       -0.27823
C         -1.85792        0.93708       -0.22312
H          0.62448        0.10546        1.04324
H          2.14383       -0.03397       -0.00684
H          0.80772       -0.09463       -2.02830
H         -1.32108       -1.35841       -2.68593
H         -3.78375       -1.25287       -2.78681
H         -7.15575        1.17414       -0.04064
H         -3.78343        1.67293        0.39274
H         -1.32993        1.57131        0.48579
