47

C          1.01410        0.35481        0.16431
C          0.58115        1.29171       -0.95463
C          1.05282        0.85059       -2.34363
C          0.61480       -0.55663       -2.76724
C         -0.91105       -0.79096       -2.84655
C         -1.61852        0.13486       -3.86056
C         -1.18674       -0.03826       -5.31195
C         -1.24235       -2.27119       -3.13356
O         -0.79457       -3.11886       -2.05994
C          0.36084       -3.79442       -2.27260
O          1.06123       -3.74148       -3.27254
C          0.75851       -4.57630       -1.08676
C         -0.10262       -5.00482       -0.15188
C          0.32061       -5.82031        0.99080
C         -0.38949       -6.98357        1.29961
C         -0.01378       -7.77007        2.39246
C          1.06537       -7.40293        3.19901
O          1.32317       -8.25936        4.23313
C          2.42496       -7.94059        5.07352
C          1.76755       -6.23488        2.90400
C          1.39510       -5.44697        1.80705
H          0.51508       -0.61629        0.09057
H          0.75423        0.78422        1.13711
H          2.09615        0.19048        0.14438
H         -0.50872        1.39954       -0.93876
H          0.99350        2.28766       -0.75253
H          0.72069        1.58640       -3.08430
H          2.14995        0.88213       -2.36258
H          1.07252       -0.78566       -3.73702
H          1.06138       -1.26322       -2.06119
H         -1.32668       -0.56749       -1.85546
H         -2.70077       -0.03701       -3.80177
H         -1.46896        1.18151       -3.57250
H         -1.41316       -1.04239       -5.68209
H         -1.72462        0.67273       -5.94783
H         -0.11729        0.14767       -5.44311
H         -2.33021       -2.39692       -3.18433
H         -0.84282       -2.60182       -4.09830
H          1.81322       -4.82711       -1.05642
H         -1.16783       -4.80082       -0.22693
H         -1.23259       -7.29756        0.68872
H         -0.56786       -8.67844        2.61665
H          3.36350       -7.93502        4.50941
H          2.26620       -6.98699        5.58774
H          2.49999       -8.72137        5.83658
H          2.60634       -5.90383        3.50700
H          1.94981       -4.53315        1.60585
