32

C          0.90723        0.14062       -0.22863
N          0.29035        0.33199        1.05882
C         -0.56838        1.33171        1.42143
O         -1.02258        1.36883        2.56197
O         -0.82212        2.24637        0.40910
C         -1.54999        3.38815        0.76643
C         -1.15658        4.19984        1.83627
C         -1.88466        5.35673        2.14929
C         -2.99203        5.72379        1.38294
C         -3.34414        4.92563        0.30323
C         -2.63089        3.77861       -0.00573
O         -3.11429        3.10371       -1.09581
C         -4.17839        3.94680       -1.64286
C         -5.38068        3.03759       -1.91229
C         -3.66464        4.52732       -2.96884
C         -4.48704        5.08809       -0.62849
O         -5.71026        4.91119        0.07706
H          0.62140        0.91220       -0.94523
H          0.60598       -0.84088       -0.60322
H          1.99159        0.14968       -0.09004
H          0.49049       -0.32193        1.80391
H         -0.29629        3.93234        2.44413
H         -1.58624        5.96470        3.00010
H         -3.56714        6.61104        1.63159
H         -6.23632        3.60406       -2.29427
H         -5.12683        2.26178       -2.64358
H         -5.68470        2.50828       -1.00222
H         -2.75575        5.12003       -2.81704
H         -3.40059        3.72778       -3.67017
H         -4.41920        5.16557       -3.44160
H         -4.49706        6.07471       -1.10282
H         -5.53805        4.30028        0.81592
