9

C          0.89685       -0.08826       -0.14273
C          0.54339        0.53492        1.19232
N          1.04288        1.93769        1.25006
O          1.86976        2.10129        2.15387
H          0.46635        0.48032       -0.97443
H          0.51375       -1.11206       -0.19737
H          1.98213       -0.12296       -0.28862
H         -0.54153        0.58307        1.32393
H          0.97244       -0.04262        2.01751
