24

N         -1.88774       -2.05905       -0.14676
C         -1.40726       -0.73950       -0.00462
C         -2.34227        0.30165       -0.06597
C         -1.91642        1.62648       -0.02317
S         -3.08515        2.94890       -0.03966
O         -2.96565        3.66016        1.21389
O         -2.97041        3.63036       -1.30946
O         -4.54443        2.25912       -0.03071
C         -0.55982        1.94183        0.03663
C          0.39807        0.92154        0.02657
C          1.76475        1.24556        0.04657
C          2.73833        0.24949        0.01196
C          2.35709       -1.08372       -0.04924
C          1.00114       -1.42176       -0.06656
C         -0.01374       -0.43743       -0.01761
H         -1.28222       -2.75718        0.27124
H         -2.84944       -2.17819        0.15715
H         -3.40170        0.07042       -0.13703
H         -5.20988        2.96886       -0.14621
H         -0.25297        2.98609        0.06953
H          2.08522        2.28513        0.08199
H          3.79169        0.51668        0.02406
H          3.11161       -1.86519       -0.08724
H          0.74722       -2.47602       -0.12969
