23

C          0.82971        0.11427        0.06247
C          0.57981       -1.23191       -0.59450
O          1.07918       -2.30698        0.21679
C          2.42128       -2.51967        0.14716
O          3.20810       -1.85044       -0.51030
C          2.84333       -3.70217        1.00072
C          2.47257       -3.39979        2.45395
C          2.26172       -5.02387        0.46445
Br         2.85261       -5.25617       -1.42462
C          2.74054       -6.27467        1.19962
Br         1.56722       -6.72680        2.69071
H          0.42626        0.12939        1.07984
H          0.36500        0.91781       -0.51621
H          1.90062        0.32534        0.14190
H         -0.49863       -1.39005       -0.69912
H          1.01060       -1.27551       -1.60158
H          3.94006       -3.74124        0.94521
H          1.39502       -3.50443        2.62328
H          2.99927       -4.06574        3.14353
H          2.74386       -2.37269        2.72385
H          1.16941       -4.98541        0.38830
H          2.71508       -7.17194        0.57280
H          3.75181       -6.16557        1.60330
