19

O          1.27497       -0.62393       -0.48589
N          2.14885        0.05850        0.05996
C          2.84268        0.97002       -0.90821
C          2.54107        2.42413       -0.53633
C          3.30852        3.39674       -1.42902
C          4.80824        3.11517       -1.40624
C          5.11421        1.66479       -1.77014
C          4.34723        0.68659       -0.88211
H          2.45222        0.76308       -1.91329
H          1.46530        2.62184       -0.62338
H          2.80738        2.61214        0.51262
H          3.12109        4.42506       -1.10014
H          2.93754        3.31741       -2.45834
H          5.20430        3.33132       -0.40632
H          5.32014        3.78668       -2.10464
H          6.19053        1.48094       -1.67716
H          4.84945        1.48852       -2.81999
H          4.73051        0.75825        0.14480
H          4.54558       -0.33969       -1.21589
