44

C          1.49787       -0.48383        0.00308
C          0.91093       -0.22707        1.38232
C          1.16646        1.19517        1.89024
C          0.42036        2.28223        1.11855
O         -0.98969        2.10141        1.30513
C         -1.70232        1.57535        0.28083
O         -1.26330        1.33266       -0.83591
C         -3.14288        1.32962        0.66444
C         -3.45464        1.34314        2.16370
C         -3.34948        2.69545        2.89558
C         -3.66124        3.95802        2.08696
C         -5.10180        4.14479        1.67144
O         -5.54082        5.21246        1.26387
O         -5.81443        2.99955        1.79121
C         -7.22448        3.05686        1.53779
C         -7.97058        3.00532        2.86992
C         -7.71505        4.20837        3.78282
C         -8.30199        5.50349        3.24348
H          1.12569        0.22294       -0.74249
H          1.23485       -1.49091       -0.33517
H          2.58918       -0.40756        0.02753
H         -0.16274       -0.44421        1.37320
H          1.35998       -0.93655        2.08733
H          0.84191        1.23292        2.93824
H          2.24098        1.40769        1.87487
H          0.66858        3.25984        1.54654
H          0.70582        2.31863        0.06282
H         -3.76805        2.04587        0.12350
H         -3.39288        0.32924        0.28910
H         -4.47309        0.95685        2.29551
H         -2.80677        0.62254        2.67996
H         -3.99736        2.65734        3.78121
H         -2.33103        2.79637        3.29108
H         -3.41124        4.81936        2.71921
H         -3.03607        4.01919        1.19148
H         -7.50995        3.92081        0.92993
H         -7.47271        2.16390        0.95340
H         -9.04511        2.90196        2.68359
H         -7.64603        2.10729        3.41146
H         -8.16410        4.00615        4.76237
H         -6.64138        4.33476        3.95963
H         -9.39330        5.44130        3.19300
H         -8.03897        6.33744        3.90162
H         -7.92982        5.74115        2.24402
