24

C          1.09520        0.07549        0.26181
C          0.46856        1.39614        0.60617
O         -0.25499        2.00640       -0.16594
O          0.81682        1.72713        1.87347
C          0.41276        2.93861        2.34327
O         -0.16064        3.83081        1.73070
C          0.76430        3.06260        3.83456
O          0.26705        1.96716        4.60450
C          2.25616        3.21591        4.05984
C          3.09187        2.09897        4.21922
C          4.46323        2.25846        4.42571
C          5.01772        3.53541        4.47296
C          4.20369        4.65347        4.30493
C          2.83237        4.49606        4.09332
H          0.83474       -0.19335       -0.76623
H          0.71540       -0.70080        0.93102
H          2.18325        0.14907        0.33458
H          0.25878        3.95770        4.21898
H         -0.69637        2.08765        4.66842
H          2.67267        1.09463        4.19831
H          5.09717        1.38554        4.55855
H          6.08393        3.65947        4.64408
H          4.63671        5.65004        4.34299
H          2.21609        5.38409        3.96387
