18

C          0.91814        0.17620        0.01985
O          0.40558        1.43902        0.45000
C          0.94698        1.87783        1.62284
O          1.80822        1.29147        2.26156
C          0.40543        3.22029        1.97115
N          1.29710        4.07081        2.56543
C          0.81365        5.28722        2.88850
C         -0.49474        5.65177        2.63140
N         -1.38348        4.81532        2.04486
C         -0.92671        3.58501        1.71373
N         -1.90315        2.73376        1.19855
H          0.43786       -0.07747       -0.92924
H          0.67631       -0.60279        0.74963
H          1.99870        0.23500       -0.14450
H          1.51119        5.96763        3.36421
H         -0.87157        6.63343        2.89668
H         -2.74760        3.27932        1.04682
H         -1.58332        2.25246        0.36170
