38

S          1.05597        0.08283        0.00256
P          2.95337        0.08283        0.00256
O          3.10046       -1.54435       -0.32579
C          3.15919       -2.52456        0.63557
C          3.83060       -3.69335        0.27411
C          3.87626       -4.77744        1.15275
C          3.23684       -4.70176        2.38813
C          2.56489       -3.53617        2.75068
C          2.53444       -2.44443        1.87962
O          3.13393        0.66844       -1.56912
C          2.45510        1.74241       -2.10819
C          1.99238        1.56610       -3.41410
C          1.05994        2.45517       -3.94860
C          0.60354        3.52677       -3.18261
C          1.12390        3.74305       -1.90533
C          2.07646        2.86763       -1.37416
O          4.68337        0.08283        0.00256
C          5.33470        0.86154        0.91681
C          6.53148        1.44064        0.49849
C          7.26803        2.23036        1.37981
C          6.81016        2.42954        2.68120
C          5.61997        1.83405        3.10164
C          4.87933        1.04294        2.22049
H          4.31058       -3.76526       -0.69806
H          4.39632       -5.68760        0.86493
H          3.24843       -5.55404        3.06258
H          2.04162       -3.48498        3.70224
H          1.96450       -1.57602        2.18963
H          2.29188        0.69037       -3.98326
H          0.65228        2.28161       -4.94097
H         -0.17196        4.18109       -3.57346
H          0.74718        4.56722       -1.30433
H          2.42806        3.03004       -0.36102
H          6.89149        1.27719       -0.51446
H          8.20106        2.68303        1.05361
H          7.38844        3.03852        3.37205
H          5.27938        1.97572        4.12478
H          3.98147        0.55915        2.59010
