38

C          1.10367       -0.22409       -0.41869
C          0.77869       -0.87157        0.91865
C          1.18303       -0.01713        2.12266
C          0.53537        1.37052        2.18861
C         -0.99735        1.37724        2.22872
C         -1.62630        0.62817        3.40989
C         -1.16937        1.09818        4.79567
C         -1.60213        2.52290        5.16485
C         -3.07466        2.66279        5.56614
C         -3.51463        1.89515        6.81734
S         -3.05298        2.64891        8.40486
C         -1.35273        2.36334        8.54314
N         -0.80505        1.23973        8.25514
N         -0.63277        3.38449        9.05310
H          0.51623        0.68492       -0.57809
H          0.87262       -0.91337       -1.23688
H          2.16543        0.03433       -0.48160
H         -0.28996       -1.10843        0.96048
H          1.30976       -1.82918        0.98065
H          0.95667       -0.57386        3.03972
H          2.27269        0.11262        2.11236
H          0.92776        1.89683        3.06667
H          0.86384        1.96572        1.32854
H         -1.33866        2.41870        2.23393
H         -1.38773        0.94838        1.29816
H         -2.71716        0.70641        3.33433
H         -1.39874       -0.44048        3.31514
H         -1.53880        0.38336        5.53692
H         -0.07771        1.03697        4.86086
H         -0.96596        2.88870        5.97520
H         -1.40698        3.19905        4.32516
H         -3.30936        3.72788        5.68878
H         -3.69317        2.32039        4.72704
H         -4.61130        1.88955        6.82144
H         -3.22381        0.84311        6.78515
H         -1.52399        0.58885        7.93787
H         -1.15086        3.97732        9.68885
H          0.26020        3.07320        9.41667
