17

N         -3.39648        0.06698       -0.19836
C         -2.01084        0.00402       -0.00668
C         -1.28206        1.20309       -0.06408
C          0.11379        1.20978       -0.01968
C          0.80237        0.00618        0.03949
Cl         2.52089        0.00075        0.08158
C          0.10374       -1.19724        0.04377
C         -1.30753       -1.21334        0.00697
C         -1.99336       -2.55499       -0.03561
F         -1.94108       -3.13314       -1.26749
F         -1.42418       -3.45628        0.81734
F         -3.31406       -2.52253        0.31010
H         -3.82643        0.93918        0.09781
H         -3.92172       -0.74154        0.13492
H         -1.80421        2.15414       -0.14939
H          0.65047        2.15403       -0.04989
H          0.65390       -2.13749        0.06393
