14

O          1.32685       -0.09640       -0.60342
N          2.25651        0.20081        0.15107
N          2.85753       -0.87996        0.76360
C          3.92736       -0.67748        1.69782
C          4.48627       -2.07209        1.88873
C          3.26815       -2.96990        1.71789
C          2.38468       -2.19521        0.76277
O          1.43243       -2.69204        0.18182
H          3.51027       -0.28481        2.63209
H          4.67556        0.01680        1.30285
H          4.98264       -2.20426        2.85407
H          5.21634       -2.29266        1.09988
H          2.73254       -3.10309        2.66297
H          3.54050       -3.94125        1.29785
