63

C          1.11227       -0.13966        0.21523
C          0.51938        1.17995        0.79431
C          1.06263        2.26347       -0.18589
C         -1.03482        1.18088        0.78076
C         -1.75513        2.39237        0.83853
C         -3.15308        2.41571        0.87283
C         -3.87006        1.22578        0.86559
C         -3.18757        0.01493        0.83116
C         -1.78806       -0.00762        0.79416
C          0.99047        1.40902        2.25652
C          1.08697        0.34393        3.16259
C          1.31980        0.56596        4.53005
N          1.36224       -0.55968        5.39675
N          1.46125       -1.82829        4.93140
C          1.36897       -2.56970        6.04234
C          1.39835       -3.96839        6.18273
C          1.21113       -4.42525        7.50164
C          1.01023       -3.55434        8.60671
C          1.00673       -2.15065        8.49226
C          1.20054       -1.67438        7.18434
N          1.27375       -0.40870        6.74676
C          1.44585        1.88109        5.01835
O          1.66925        2.12722        6.34869
C          1.36854        2.98958        4.14937
C          1.43552        4.46727        4.65836
C          0.40509        4.70472        5.80121
C          2.84487        4.72165        5.25724
C          1.09811        5.51873        3.55117
C          2.06170        6.38694        3.00553
C          1.72953        7.30199        2.00069
C          0.43095        7.36144        1.50587
C         -0.54143        6.51176        2.02061
C         -0.21455        5.60832        3.03518
C          1.18373        2.70737        2.77249
H          0.78476       -0.29526       -0.82066
H          0.82606       -1.03933        0.76672
H          2.20882       -0.10907        0.21614
H          0.74034        2.05476       -1.21410
H          0.72761        3.28064        0.03428
H          2.15928        2.28443       -0.17759
H         -1.23833        3.34754        0.87855
H         -3.67773        3.36652        0.91629
H         -4.95584        1.24137        0.89898
H         -3.74296       -0.91951        0.84281
H         -1.30902       -0.98193        0.79200
H          0.91604       -0.67416        2.82206
H          1.54450       -4.63450        5.34306
H          1.21350       -5.50066        7.68365
H          0.85372       -3.99523        9.59190
H          0.85620       -1.49206        9.33727
H          1.56354        1.29237        6.85504
H          0.68864        4.21855        6.73916
H          0.30760        5.77282        6.03250
H         -0.59021        4.32648        5.53970
H          3.63703        4.51782        4.52697
H          2.95161        5.75836        5.60032
H          3.05537        4.09287        6.12792
H          3.09394        6.37570        3.34405
H          2.49247        7.96686        1.60326
H          0.17930        8.06739        0.71933
H         -1.55538        6.54557        1.63136
H         -0.99436        4.94228        3.40043
H          1.13760        3.53811        2.07659
