23

Cl        -2.09034       -0.09006       -0.01719
C         -0.37193       -0.01659       -0.04506
C          0.37515       -1.12345        0.35258
C          1.77015       -1.06151        0.32666
C          2.41608        0.10717       -0.08684
O          3.79331        0.04946       -0.10662
C          4.48644        1.23401        0.00222
C          4.47781        1.92155        1.22200
C          5.21010        3.09846        1.35996
C          5.96199        3.57784        0.28662
C          5.99098        2.87829       -0.92636
Cl         6.95529        3.53903       -2.20096
C          5.25851        1.69364       -1.07406
Cl         5.27354        0.79937       -2.55803
C          1.66084        1.20880       -0.50152
C          0.26443        1.14755       -0.47327
H         -0.11880       -2.03563        0.67611
H          2.35486       -1.92783        0.62650
H          3.90352        1.53815        2.06220
H          5.20097        3.63934        2.30371
H          6.53222        4.49725        0.40256
H          2.13489        2.11637       -0.86345
H         -0.31870        2.00629       -0.79552
