24

O          1.14887       -0.00322        0.21670
C          0.91445       -1.25788       -0.41563
C          1.11440       -1.22386       -1.95565
N          0.89888       -2.54111       -2.59236
C         -0.52002       -2.91360       -2.62935
C         -1.41207       -1.87240       -3.32793
O         -2.78864       -2.22044       -3.11542
C         -1.18159       -0.45857       -2.77786
O         -1.77586       -0.32335       -1.47539
C          0.31251       -0.12789       -2.70184
O          0.49777        1.15713       -2.10268
H          1.83171        0.47013       -0.29286
H          1.61207       -1.97722        0.02722
H         -0.09145       -1.58143       -0.13609
H          2.17218       -0.96558       -2.10211
H          1.41929       -3.25706       -2.08279
H         -0.89388       -3.12014       -1.61927
H         -0.61568       -3.86555       -3.16613
H         -1.21226       -1.89188       -4.40615
H         -3.33074       -1.57011       -3.59672
H         -1.69918        0.27561       -3.40589
H         -2.48663       -0.99416       -1.42523
H          0.70386       -0.05541       -3.72496
H         -0.06617        1.14380       -1.29771
