43

C          1.46059       -0.08829        0.07580
C          0.56583       -0.54742        1.24100
C          0.94237        0.27756        2.49024
C         -0.92653       -0.27402        0.92132
O         -1.39123       -0.93963       -0.26528
C         -1.39774       -0.22712       -1.41272
O         -1.04146        0.92553       -1.58637
C         -1.88286       -1.10933       -2.48123
C         -0.96288       -1.73408       -3.32717
C         -1.42672       -2.56606       -4.34615
C         -2.79939       -2.75994       -4.51946
C         -3.71368       -2.12939       -3.67178
C         -3.25718       -1.30150       -2.64618
C          0.85700       -2.03832        1.55839
O          0.41317       -2.95055        0.54252
C         -0.76643       -3.57301        0.80305
O         -1.47764       -3.41691        1.78259
C         -1.14032       -4.43065       -0.33799
C         -2.46053       -4.38430       -0.79682
C         -2.85195       -5.18751       -1.86724
C         -1.93155       -6.04841       -2.46501
C         -0.61901       -6.11080       -1.99276
C         -0.21759       -5.29844       -0.93025
H          1.27390        0.96351       -0.17011
H          1.29780       -0.68556       -0.82621
H          2.52195       -0.17385        0.33551
H          0.74524        1.34463        2.33802
H          0.36487       -0.04509        3.36436
H          2.00481        0.16655        2.73491
H         -1.55138       -0.63613        1.74656
H         -1.12069        0.80419        0.85133
H          0.10418       -1.58130       -3.19002
H         -0.72030       -3.06728       -5.00309
H         -3.15690       -3.41193       -5.31296
H         -4.78019       -2.28939       -3.80793
H         -3.96445       -0.81249       -1.98205
H          1.94118       -2.18587        1.64367
H          0.44971       -2.31453        2.53899
H         -3.17508       -3.70622       -0.33562
H         -3.87028       -5.13060       -2.24285
H         -2.23916       -6.67147       -3.30124
H          0.08934       -6.79542       -2.45235
H          0.80229       -5.35600       -0.56004
