41

C          1.08343       -0.03362        0.04369
C         -0.22043       -0.03362        0.04369
C         -1.74043       -0.03362        0.04369
N         -2.24779        1.28773        0.41488
C         -2.98925        1.40442        1.58312
O         -3.32848        0.44943        2.28163
C         -3.45892        2.81970        1.89798
O         -2.60823        3.89327        1.54161
C         -1.98968        3.71328        0.33588
C         -1.42226        4.85749       -0.22210
C         -0.70255        4.76330       -1.40722
F         -0.20199        5.88990       -1.93498
C         -0.57600        3.54547       -2.08191
N          0.20340        3.44462       -3.25720
C         -0.06362        2.62440       -4.31919
O         -1.00972        1.88186       -4.51902
C          1.04124        2.79297       -5.26826
C          1.94935        3.59079       -4.70652
C          3.26072        3.94251       -5.29986
C          3.30308        3.57002       -6.79152
C          2.64321        2.21136       -7.08092
C          1.18521        2.14336       -6.59232
C          1.44087        4.01937       -3.40038
O          2.11271        4.65960       -2.61063
C         -1.19522        2.41011       -1.53365
C         -1.84100        2.46523       -0.28511
H          2.14921       -0.02940        0.05407
H         -2.12218       -0.28759       -0.95130
H         -2.09166       -0.80657        0.73454
H         -4.43824        2.96778        1.42692
H         -3.60328        2.88066        2.98247
H         -1.51972        5.82066        0.26905
H          3.46936        5.01125       -5.18390
H          4.04783        3.39521       -4.76660
H          4.34414        3.55722       -7.13452
H          2.78804        4.34652       -7.37150
H          3.22550        1.42163       -6.58879
H          2.67730        2.00500       -8.15692
H          0.86367        1.09715       -6.55417
H          0.53704        2.65961       -7.31076
H         -1.09530        1.46145       -2.05335
