24

C          0.88316        0.17601        0.15633
O          0.30839        1.37924       -0.35955
C          0.96488        2.51789       -0.01953
O          1.94131        2.57191        0.71702
C          0.34812        3.71084       -0.65183
S          0.91211        3.87628       -2.30836
O          0.53471        2.69636       -3.06334
O          0.49841        5.18949       -2.77274
C          2.68996        3.90041       -2.22362
C          3.40053        2.69830       -2.31455
C          4.79597        2.71979       -2.27742
C          5.46904        3.93768       -2.17587
Cl         7.18887        3.96074       -2.14175
C          4.75921        5.13782       -2.11328
C          3.36274        5.12340       -2.14035
H          0.44021       -0.66699       -0.38120
H          0.64640        0.07939        1.21955
H          1.96607        0.15112       -0.00389
H         -0.74224        3.63019       -0.65012
H          0.62169        4.61018       -0.09262
H          2.88335        1.74629       -2.41502
H          5.35204        1.78737       -2.33552
H          5.28832        6.08576       -2.05228
H          2.81725        6.06444       -2.11056
