27

C          0.42841        0.68716        0.21009
C          0.04940        0.86750       -1.24761
C          0.75161       -0.06119       -2.24648
C          0.49750       -1.58644       -2.17727
C         -1.01156       -1.87651       -2.12447
O          0.98295       -2.15257       -3.40690
C          1.20350       -2.35096       -1.03200
C          2.71034       -2.62844       -1.15281
C          3.61999       -1.41661       -1.07985
H         -0.04509       -0.19966        0.63795
H          0.08015        1.54483        0.79524
H          1.51168        0.61618        0.33788
H         -1.03823        0.79151       -1.35389
H          0.30441        1.89738       -1.53003
H          0.44046        0.27810       -3.24606
H          1.82251        0.14988       -2.23130
H         -1.53687       -1.36531       -2.93964
H         -1.20909       -2.94630       -2.26107
H         -1.45580       -1.56592       -1.17391
H          0.47956       -1.76267       -4.14081
H          0.99736       -1.89427       -0.06255
H          0.74422       -3.34933       -0.97760
H          2.98241       -3.29405       -0.32307
H          2.92390       -3.18990       -2.06928
H          3.32624       -0.74015       -0.27311
H          4.65041       -1.73471       -0.88896
H          3.63094       -0.86973       -2.02552
