45

C          0.96842        0.04486        0.08965
C          0.36679       -0.31860       -1.26258
C          0.99106       -1.56692       -1.88078
O         -1.07862       -0.37441       -1.19738
C         -1.70406       -1.38346       -0.53698
O         -1.10905       -2.25443        0.08803
C         -3.23653       -1.24297       -0.55383
S         -3.65373       -1.13228       -2.31764
O         -3.25019        0.15957       -2.84631
O         -3.20623       -2.34776       -2.97325
C         -5.43570       -1.12883       -2.47413
C         -6.11711       -2.30114       -2.82497
C         -7.51529       -2.29623       -2.88461
C         -8.21588       -1.11253       -2.60964
N         -9.68246       -1.12499       -2.56638
O        -10.26394       -2.10892       -3.04318
O        -10.24724       -0.15845       -2.03472
C         -7.52886        0.08026       -2.34981
C         -6.13284        0.07483       -2.31746
C         -3.81762       -2.51789        0.11175
C         -5.24319       -2.40934        0.63592
C         -5.42736       -1.20283        1.53835
C         -4.97678        0.09021        0.87962
C         -3.58036        0.02557        0.25934
H          0.78429       -0.72801        0.84139
H          0.51849        0.96918        0.46762
H          2.05025        0.19234        0.01040
H          0.58020        0.51225       -1.94602
H          0.88980       -2.44587       -1.23803
H          0.50702       -1.80690       -2.83296
H          2.06082       -1.41652       -2.05997
H         -5.57616       -3.22391       -3.02921
H         -8.04133       -3.21865       -3.12554
H         -8.06191        1.01090       -2.16170
H         -5.60042        1.00687       -2.13140
H         -3.73674       -3.38075       -0.56000
H         -3.20888       -2.77475        0.99059
H         -5.48410       -3.31890        1.19991
H         -5.96262       -2.37318       -0.18050
H         -4.86802       -1.35292        2.46864
H         -6.48522       -1.11935        1.81584
H         -4.99660        0.89430        1.62566
H         -5.71283        0.38275        0.13254
H         -2.86965        0.10465        1.09476
H         -3.41930        0.93046       -0.33926
