24

O          1.68123       -1.38500       -0.04953
C          0.49090       -0.71258       -0.02839
C         -0.72794       -1.37594       -0.01048
C         -1.91031       -0.62644        0.01654
C         -1.88557        0.78272        0.02401
C         -3.13365        1.56121        0.06198
C         -3.41372        2.52753       -0.91813
C         -4.59352        3.27542       -0.87548
C         -5.51247        3.07004        0.15055
C         -5.25442        2.11599        1.13154
C         -4.07542        1.36703        1.08607
C         -0.63737        1.42674        0.00044
C          0.53226        0.67793       -0.02381
O          1.73610        1.32352       -0.03900
H          1.48916       -2.33838       -0.04372
H         -0.78524       -2.45923       -0.01826
H         -2.86501       -1.15011        0.02146
H         -2.71061        2.69998       -1.73086
H         -4.79167        4.01867       -1.64326
H         -6.42753        3.65521        0.18707
H         -5.96654        1.95742        1.93706
H         -3.88575        0.63749        1.87070
H         -0.57177        2.51147        0.01573
H          2.39852        0.60428       -0.04734
