52

O          1.04201       -0.07177       -0.38992
C          2.12702       -0.15632        0.18629
C          2.79058        1.05034        0.74510
C          2.06719        2.20476        1.10116
O          0.71101        2.26264        0.94846
C          2.72438        3.33358        1.59089
C          4.10211        3.30190        1.77031
C          4.82655        2.16389        1.41327
C          4.19638        1.05475        0.82560
C          5.02740       -0.08383        0.25820
C          5.68036        0.10254       -1.17546
O          4.76912        0.01979       -2.28606
C          4.40520        1.20551       -3.00113
C          3.14098        1.84123       -2.42031
O          2.71274        2.98153       -3.16323
C          5.57581        2.17238       -3.26469
O          5.18509        3.44542       -3.79378
C          6.41784        2.42532       -2.02128
O          5.72954        3.25016       -1.08186
C          6.83258        1.11177       -1.36629
O          7.57391        1.33037       -0.16555
C          4.26598       -1.41111        0.29093
C          4.98340       -2.62410        0.27218
C          4.32355       -3.85394        0.17067
C          5.09922       -5.13959        0.06508
O          4.90934       -5.93518        1.22500
C          2.92400       -3.87348        0.15612
C          2.20016       -2.67999        0.20309
O          0.83617       -2.74458        0.23862
C          2.86216       -1.44496        0.24335
H          0.40008        3.17454        1.05620
H          2.18022        4.23938        1.84166
H          4.62342        4.17569        2.15435
H          5.90492        2.17899        1.54618
H          5.85227       -0.21737        0.97508
H          6.22685       -0.84619       -1.28783
H          4.09836        0.85822       -3.99746
H          2.32920        1.10744       -2.41278
H          3.32386        2.18466       -1.41144
H          1.83226        3.20176       -2.79816
H          6.22960        1.70538       -4.01172
H          4.20148        3.48662       -3.79234
H          7.31288        2.99819       -2.29272
H          5.20348        3.88219       -1.61156
H          7.53924        0.64528       -2.06742
H          7.51892        2.28951        0.01667
H          6.07281       -2.60367        0.29441
H          4.77543       -5.70709       -0.81403
H          6.17157       -4.94691       -0.04553
H          4.70099       -5.33571        1.96186
H          2.40847       -4.83011        0.10816
H          0.53957       -3.63317       -0.01109
