15

C          1.00977       -0.06365        0.01701
C          0.48635        1.26341       -0.43565
C         -0.53099        1.39058       -1.28933
C         -0.96825        2.73486       -1.67125
O         -1.91368        2.85193       -2.44911
C         -0.26204        3.91909       -1.10639
C          0.87966        3.65111       -0.18507
O          1.53155        4.57353        0.30157
O          1.17787        2.35953        0.11168
H          0.57910       -0.89151       -0.55577
H          0.77431       -0.22047        1.07434
H          2.09703       -0.10450       -0.10481
H         -1.06489        0.55103       -1.71706
H         -1.00081        4.50821       -0.55250
H          0.12477        4.50125       -1.94977
