33

C          3.04740        0.59849       -0.00558
C          1.59462        0.24270        0.10500
C          0.65415        1.23729        0.30375
C         -0.66337        0.83455        0.35650
C         -1.78539        1.82553        0.41753
N         -1.01845       -0.45901        0.25286
C         -0.04373       -1.34072        0.04231
N         -0.39794       -2.53052       -0.59628
S         -1.55953       -3.49095        0.10469
O         -1.54854       -4.71613       -0.65403
O         -1.32618       -3.52165        1.54056
C         -3.16506       -2.77487       -0.15801
C         -4.24640       -3.38437        0.48643
C         -5.50375       -2.77724        0.46400
C         -5.67509       -1.52704       -0.13252
N         -6.93733       -0.92179       -0.15725
C         -4.62398       -0.99560       -0.88454
C         -3.37319       -1.62265       -0.91322
N          1.25343       -1.04956       -0.08341
H          3.22872        1.14090       -0.93861
H          3.35276        1.22502        0.83853
H          3.66996       -0.30151       -0.00159
H          0.93645        2.27996        0.37589
H         -2.37784        1.67298        1.32361
H         -1.42005        2.85663        0.40453
H         -2.43484        1.69125       -0.45509
H          0.42567       -3.07457       -0.83555
H         -4.11167       -4.32534        1.01659
H         -6.33921       -3.27174        0.95328
H         -6.89263        0.08814       -0.25799
H         -7.52676       -1.19364        0.62427
H         -4.75996       -0.06852       -1.43495
H         -2.57375       -1.17034       -1.48910
