24

C          1.12225        0.34817       -0.35295
C          0.54760       -1.27555       -0.67213
C          1.12231       -2.87234       -0.23748
C         -1.46775       -1.26842       -0.47332
C         -2.34320       -1.22886        0.62848
C         -1.70570       -1.18654        1.80767
O         -2.41025       -1.14297        3.02544
C          0.44893       -1.18372        1.88604
O          1.63296       -1.20862        1.19482
C          1.06019       -1.13883        3.13701
C          0.05369       -1.17313        2.20743
C         -0.42993       -1.24188        0.23838
Br        -0.97759       -1.32953       -2.16377
H          0.74971        0.71856        0.61820
H          0.66047        1.06597       -1.02754
H          2.20974        0.32595       -0.32280
H          1.10113       -1.31169       -1.67939
H          0.74975       -3.17220        0.75771
H          0.66047       -3.63657       -0.85893
H          2.20978       -2.84797       -0.20899
H         -3.40160       -1.23634        0.42177
H         -3.36103       -1.14851        2.87137
H          2.14436       -1.14072        3.08845
H         -0.62712       -1.13397        3.28137
