14

Cl         0.95723       -0.09724       -0.02911
C          2.68088       -0.07663       -0.02135
C          3.34765        1.15577       -0.01851
C          4.75040        1.21652       -0.01137
C          5.46104        0.00951       -0.00741
N          6.80842       -0.24501       -0.00030
C          6.86774       -1.55937        0.00016
O          5.66600       -2.20365       -0.00606
C          4.75659       -1.18524       -0.01084
C          3.37183       -1.29245       -0.01778
H          2.77845        2.08319       -0.02173
H          5.27476        2.16579       -0.00885
H          7.74893       -2.18567        0.00485
H          2.87357       -2.25288       -0.02001
