58

C         -2.37915        0.82970       -0.00841
C         -1.04223        0.18107       -0.07012
N          0.04795        0.93123        0.08127
N          1.05489        0.05100       -0.01505
C          2.40709        0.55929        0.03654
C          0.66540       -1.25232       -0.24451
O          1.65035       -2.14630       -0.34911
C          1.60460       -3.40301       -0.87375
C          2.46838       -4.32622       -0.26627
C          2.51464       -5.65101       -0.70238
C          1.70842       -6.05221       -1.76581
C          0.88731       -5.11985       -2.40927
C          0.84898       -3.78734       -1.97659
C         -0.72553       -1.19723       -0.28817
C         -1.74196       -2.17345       -0.58621
N         -1.95469       -3.33994       -0.07068
O         -1.06801       -3.70507        0.95043
C         -0.87830       -5.11451        0.81681
C         -0.48416       -5.86517        2.05443
C         -0.31111       -5.26170        3.29902
C         -0.03189       -6.05174        4.41388
C          0.07728       -7.44524        4.28954
C          0.19521       -8.24397        5.53312
O          0.28560       -7.73567        6.63567
O          0.05889       -9.56327        5.25025
C         -0.24807      -10.49764        6.31363
C          0.81416      -10.49267        7.41710
C         -1.65410      -10.20801        6.85297
C         -0.25161      -11.88278        5.64922
C         -0.02367       -8.04302        3.03096
C         -0.30115       -7.25346        1.92206
H         -2.44539        1.49446        0.85932
H         -2.55486        1.42161       -0.91228
H         -3.18471        0.09440        0.07892
H          2.57368        1.16205       -0.86041
H          2.51155        1.17227        0.93498
H          3.12494       -0.26241        0.06893
H          3.08490       -4.01649        0.57466
H          3.15326       -6.36835       -0.19306
H          1.70630       -7.09271       -2.08073
H          0.25408       -5.43921       -3.23302
H          0.21422       -3.07645       -2.49241
H         -2.47394       -1.85235       -1.34726
H         -1.77977       -5.58334        0.40134
H         -0.08105       -5.26009        0.10377
H         -0.42100       -4.18585        3.41565
H          0.06151       -5.58022        5.39028
H          0.79894       -9.57050        8.00424
H          0.66062      -11.31802        8.11979
H          1.81834      -10.57858        6.98727
H         -2.39170      -10.24237        6.04160
H         -1.94883      -10.93061        7.61985
H         -1.72525       -9.20532        7.28614
H         -0.98157      -11.92632        4.83248
H          0.72492      -12.10345        5.20282
H         -0.49069      -12.67403        6.36785
H          0.07225       -9.11751        2.90118
H         -0.40746       -7.72450        0.94567
