29

C          0.42823        0.33136       -0.44903
C          0.32633       -0.22090       -1.85954
O          0.92594       -1.50916       -1.95728
P          2.65594       -1.50916       -1.95728
S          2.64911       -2.50963       -0.19080
C          2.45634       -2.80278       -3.39547
C          1.97542       -2.12700       -4.67016
O          4.38594       -1.50916       -1.95728
C          5.22210       -2.31439       -2.67883
C          5.70377       -3.47890       -2.07755
C          6.53395       -4.34335       -2.79530
Cl         7.07946       -5.77822       -2.00482
C          6.89051       -4.03082       -4.11344
Cl         7.87043       -5.07633       -5.07838
C          6.45487       -2.83388       -4.69177
C          5.64452       -1.96262       -3.96357
Cl         5.18604       -0.46227       -4.67594
H          0.04055       -0.38669        0.28126
H         -0.13108        1.26607       -0.35384
H          1.47098        0.53245       -0.18243
H         -0.72709       -0.32935       -2.13442
H          0.79661        0.45602       -2.57938
H          3.34811       -3.39534       -3.57635
H          1.69717       -3.52180       -3.06142
H          2.45011       -1.15566       -4.81480
H          2.17835       -2.75870       -5.53990
H          0.89511       -1.95563       -4.62783
H          5.42450       -3.71748       -1.05293
H          6.75097       -2.58288       -5.70798
