46

O          1.47224        0.48133        0.58270
C          2.61930        0.56828        0.14655
C          3.77843        1.07686        0.97762
C          4.44053       -0.01413        1.78648
C          5.52971        0.14204        2.62620
C          5.91861       -1.07315        3.26046
C          5.11644       -2.12704        2.89068
S          3.90946       -1.65046        1.78441
N          2.96074        0.08542       -1.11065
C          2.01816       -0.87416       -1.73287
C          0.78616       -0.32973       -2.48730
O         -0.24513        0.22716       -2.16535
N          1.01538       -1.18613       -3.56184
C         -0.00485       -2.12473       -3.73563
C         -1.13019       -1.55808       -4.55965
O         -1.02801       -0.63213       -5.34327
O         -2.31317       -2.16471       -4.39292
C         -0.03719       -3.24652       -2.96808
C         -1.29836       -3.95050       -2.48787
N         -1.59389       -3.44942       -1.10221
C         -2.05292       -2.18220       -0.93104
C         -2.17294       -1.63340        0.33934
C         -1.85312       -2.40294        1.44761
C         -1.43933       -3.71522        1.26589
C         -1.32376       -4.22499       -0.02345
C          1.19467       -3.84747       -2.33194
S          2.73607       -3.28388       -3.04520
C          2.36936       -1.51873       -3.08365
H          4.51677        1.54974        0.31977
H          3.39597        1.85589        1.64765
H          6.02639        1.09229        2.78750
H          6.74246       -1.16785        3.95797
H          5.18244       -3.15468        3.22212
H          3.95124        0.05047       -1.33258
H          1.69786       -1.58549       -0.95951
H         -2.88611       -1.67120       -5.02821
H         -2.21071       -3.82283       -3.06330
H         -1.13957       -5.03404       -2.43137
H         -2.28203       -1.59399       -1.81458
H         -2.48801       -0.59794        0.45909
H         -1.92111       -1.97572        2.44760
H         -1.18794       -4.32952        2.12812
H         -0.97774       -5.23926       -0.19917
H          1.17867       -4.93369       -2.47640
H          1.20620       -3.67406       -1.25263
H          3.11751       -0.95348       -3.65444
