23

C          0.71924        0.16487       -0.07981
O          0.14448       -0.21997       -1.33085
C          0.75241        0.33993       -2.41563
O          1.58594        1.23687       -2.34550
N          0.41421       -0.23000       -3.61080
C         -0.45087       -1.27187       -3.80173
N         -0.47861       -2.01138       -4.88602
C         -1.42169       -2.98141       -4.64287
C         -1.79590       -4.08567       -5.42122
C         -2.80617       -4.93093       -4.94425
C         -3.44244       -4.67141       -3.72719
C         -3.07684       -3.57855       -2.93247
C         -2.04799       -2.77068       -3.41960
N         -1.40458       -1.67743       -2.90421
H          0.34030       -0.51702        0.68681
H          0.42039        1.18490        0.17514
H          1.81054        0.07114       -0.10215
H          0.98263        0.02832       -4.40476
H         -1.29858       -4.28047       -6.36466
H         -3.09758       -5.79861       -5.53148
H         -4.23293       -5.33733       -3.38629
H         -3.56517       -3.38227       -1.98433
H         -1.56834       -1.24611       -2.00648
