18

O          3.08651        1.14123       -0.00203
C          1.96842        0.63591        0.00436
N          1.78644       -0.71731        0.02298
C          0.57993       -1.37433        0.03028
O          0.50145       -2.59712        0.04517
C         -0.62301       -0.51978        0.01899
C         -1.90493       -1.07441        0.02693
C         -3.01667       -0.23110        0.01609
C         -2.84392        1.15554       -0.00284
C         -1.55988        1.70738       -0.01091
C         -0.44966        0.86437        0.00029
N          0.83962        1.40255       -0.00693
H          2.61863       -1.28664        0.03082
H         -2.03762       -2.15395        0.04162
H         -4.01867       -0.65460        0.02243
H         -3.71451        1.80803       -0.01122
H         -1.44402        2.78755       -0.02562
H          0.98360        2.40387       -0.02063
