27

O          1.34225        0.10178       -0.15380
C          2.56279        0.12011       -0.06768
O          3.31473        1.14983       -0.52345
C          4.22335        0.81483       -1.47012
O          4.43410       -0.29763       -1.92671
C          4.98317        2.02122       -1.89510
C          6.15279        1.83432       -2.64490
C          6.89545        2.93479       -3.07659
C          6.47170        4.22621       -2.76657
C          5.30628        4.42090       -2.02569
C          4.56093        3.32276       -1.58924
C          3.30784       -0.90989        0.70525
C          4.43752       -0.58390        1.46714
C          5.09477       -1.57948        2.19280
C          4.62347       -2.89288        2.16417
C          3.49026       -3.21574        1.41734
C          2.82741       -2.22466        0.69282
H          6.48933        0.83039       -2.89850
H          7.80138        2.78397       -3.65894
H          7.04780        5.08313       -3.10825
H          4.97396        5.43016       -1.79332
H          3.64843        3.50197       -1.02550
H          4.80698        0.43670        1.51291
H          5.97337       -1.33282        2.78401
H          5.13839       -3.66716        2.72815
H          3.12277       -4.23881        1.39865
H          1.94249       -2.47886        0.11283
