42

C          0.38743        0.10639       -0.06360
C          0.19925       -0.41300        1.34773
O          1.04215        0.16021        2.33725
P          2.77215        0.16021        2.33725
C          2.76429       -1.70664        2.00896
O          2.86201        0.89488        1.00012
S          4.89215        0.16021        2.33726
C          5.29454        0.47976        4.13224
C          4.90727        1.83781        4.81990
N          3.73814        1.95614        5.74618
C          3.82311        3.12808        6.67649
C          4.30365        4.44342        6.04491
C          2.54104        3.43724        7.48680
C          2.39463        1.75601        5.18819
C          2.12343        2.58575        3.93139
C          2.07503        0.25716        5.22706
H          0.42447        1.19969       -0.08197
H         -0.43487       -0.22747       -0.70416
H          1.31350       -0.27260       -0.50537
H         -0.82255       -0.16366        1.65630
H          0.25472       -1.50413        1.38094
H          2.40201       -1.89711        0.99588
H          3.74966       -2.17054        2.09860
H          2.10879       -2.17785        2.74684
H          4.96179       -0.37200        4.73210
H          6.39115        0.42882        4.14730
H          5.77601        2.03325        5.46759
H          4.91883        2.64343        4.07715
H          4.57215        2.84498        7.42856
H          3.68293        4.74295        5.19604
H          4.26455        5.25734        6.77865
H          5.34111        4.37253        5.70792
H          2.12314        2.53300        7.94456
H          2.74860        4.14113        8.29839
H          1.76863        3.90603        6.86135
H          1.61835        2.10636        5.86621
H          2.91573        2.53747        3.18470
H          1.17681        2.30735        3.46192
H          2.02989        3.64532        4.19132
H          1.09362        0.04624        4.79312
H          2.81602       -0.38134        4.75432
H          2.03079       -0.08156        6.27053
