36

C         -0.05132        0.47038        0.42142
C         -0.86444        1.63375       -0.12934
C         -0.37272        2.17546       -1.47297
C         -0.19399        1.15785       -2.59326
N         -1.38900        0.75329       -3.28245
C         -1.50550       -0.10069       -4.33992
O         -2.62958       -0.51627       -4.60684
N         -0.44750       -0.62418       -5.07779
S          1.01702       -0.03146       -5.57624
O          1.47884       -0.92561       -6.61815
O          0.88816        1.38812       -5.81347
C          2.10179       -0.28435       -4.19115
C          2.86000        0.79439       -3.72067
C          3.45949        0.71576       -2.46432
C          3.32221       -0.44232       -1.68811
C          3.88406       -0.48358       -0.29681
C          2.66180       -1.55830       -2.22445
C          2.04324       -1.48215       -3.47465
H         -0.27241       -0.45655       -0.11639
H         -0.29832        0.30422        1.47537
H          1.02344        0.66488        0.35595
H         -1.91729        1.34309       -0.20021
H         -0.81112        2.45637        0.59552
H         -1.04083        2.97903       -1.80307
H          0.60840        2.63752       -1.29734
H          0.42811        1.64009       -3.34236
H          0.29198        0.25554       -2.22577
H         -2.27420        0.86957       -2.80515
H         -0.77137       -1.31299       -5.75412
H          2.90962        1.72631       -4.28124
H          3.98707        1.58309       -2.07161
H          3.30709       -1.16773        0.33498
H          4.92800       -0.80586       -0.31608
H          3.82272        0.50558        0.17158
H          2.58028       -2.47631       -1.64550
H          1.47350       -2.32883       -3.84923
