19

C          1.06105        0.35979        0.03324
C          0.53425       -0.10122        1.36306
O         -0.18760        0.63779        2.03807
N          0.78537       -1.36170        1.81874
C          1.67366       -2.36340        1.39379
C          1.40586       -3.66939        1.82412
C          2.23443       -4.73009        1.44933
C          3.35751       -4.49040        0.66353
C          3.65385       -3.19051        0.26219
C          2.81674       -2.13081        0.62805
H          0.38545        1.12362       -0.36585
H          1.07788       -0.45632       -0.69302
H          2.05145        0.80329        0.15338
H          0.19468       -1.58918        2.61080
H          0.53156       -3.88378        2.43425
H          2.00099       -5.74186        1.77080
H          4.00708       -5.31230        0.37378
H          4.54616       -2.99571       -0.32795
H          3.12066       -1.13279        0.33744
