55

C          1.30647        0.07299       -0.36778
C          1.11150       -1.43419       -0.43386
C          1.59221       -2.17402        0.81782
C          0.94234       -1.74255        2.13656
C         -0.58885       -1.74734        2.15217
C         -1.24360       -3.11764        1.94713
C         -1.10582       -4.08090        3.13046
C         -1.83538       -3.64326        4.40020
O         -3.25917       -3.62013        4.20320
C         -3.82198       -2.39537        4.08372
O         -3.27308       -1.31309        3.97488
C         -5.27879       -2.54936        4.09189
C         -5.91326       -2.55409        2.83920
C         -7.30184       -2.64418        2.76106
C         -8.05725       -2.72030        3.92859
C         -7.42483       -2.71271        5.17580
C         -6.02448       -2.62608        5.27786
C         -5.45690       -2.62573        6.65790
O         -6.13792       -2.83530        7.64993
O         -4.13538       -2.36598        6.65279
C         -3.46686       -2.32569        7.92064
C         -3.26224       -0.91207        8.41061
C         -3.30801        0.19258        7.54744
C         -3.09228        1.48377        8.03365
C         -2.80782        1.68465        9.38251
C         -2.73482        0.59464       10.24651
C         -2.95826       -0.69586        9.76351
H          0.69346        0.52564        0.41713
H          1.01441        0.53079       -1.31843
H          2.35393        0.32582       -0.17691
H          0.05614       -1.65779       -0.62508
H          1.66733       -1.81983       -1.29699
H          1.43537       -3.24897        0.67021
H          2.67735       -2.03924        0.91189
H          1.32187       -2.38355        2.94099
H          1.28309       -0.72906        2.38256
H         -0.91272       -1.31233        3.10195
H         -0.96382       -1.06710        1.37938
H         -2.30772       -2.96856        1.73010
H         -0.82643       -3.59700        1.05444
H         -1.51463       -5.04955        2.81621
H         -0.04695       -4.24251        3.35999
H         -1.65013       -4.38704        5.18365
H         -1.45569       -2.69231        4.78892
H         -5.32532       -2.47972        1.92636
H         -7.79522       -2.64626        1.79163
H         -9.14219       -2.78071        3.87239
H         -8.03751       -2.76628        6.07555
H         -3.99387       -2.92794        8.66987
H         -2.48225       -2.78335        7.77054
H         -3.51080        0.06051        6.48599
H         -3.14310        2.33169        7.35549
H         -2.63867        2.68990        9.75858
H         -2.50398        0.74844       11.29722
H         -2.89505       -1.53590       10.45202
