29

C          1.09169        0.13656       -0.09236
C          0.59900       -1.24309       -0.50238
C          1.06663       -2.36842        0.42900
C          0.65502       -2.20846        1.89321
N         -0.79614       -2.34293        2.03093
S         -1.50660       -1.95769        3.50677
O         -0.82720       -0.79208        4.02759
O         -2.93471       -1.97106        3.28228
C         -1.11741       -3.35224        4.52608
C         -1.31392       -4.64596        4.03466
C         -0.98771       -5.73948        4.83678
C         -0.47449       -5.53724        6.11982
C         -0.28265       -4.24263        6.60589
C         -0.60045       -3.14399        5.80801
H          0.62966        0.46492        0.84347
H          0.83291        0.87218       -0.86061
H          2.17877        0.14551        0.03417
H         -0.49439       -1.23101       -0.56900
H          0.96790       -1.45848       -1.51256
H          0.68266       -3.32098        0.04229
H          2.16093       -2.42916        0.38077
H          1.13582       -2.99687        2.48282
H          1.00148       -1.24660        2.27913
H         -1.40105       -2.09307        1.25034
H         -1.71860       -4.80425        3.03816
H         -1.13617       -6.75049        4.46529
H         -0.22628       -6.39178        6.74511
H          0.11228       -4.09054        7.60758
H         -0.45052       -2.13697        6.19136
