14

O          1.56770       -0.07707        1.12070
C          2.51712       -0.04117        0.34597
C          3.10137       -1.35055       -0.14807
O          2.84884       -2.38865        0.44994
C          3.96833       -1.30306       -1.34935
Br         2.83835       -1.18599       -2.91779
C          4.91688       -0.16426       -1.36751
O          6.08334       -0.27515       -1.72261
C          4.39706        1.18722       -0.91675
O          5.03780        2.19037       -1.21009
C          3.13748        1.23203       -0.12013
Br         1.80617        2.14945       -1.20972
H          4.52727       -2.24056       -1.42921
H          3.32121        1.85616        0.76057
