45

C          4.12758        1.86794        0.52948
C          3.01538        0.86732        0.56644
C          3.27004       -0.49733        0.70016
C          2.26488       -1.42036        0.40944
C          1.01135       -0.98207       -0.03394
N          0.59225       -1.60365       -1.22340
C         -0.07948       -2.69301       -1.32420
N         -0.82630       -3.48350       -0.48331
C         -1.08380       -4.86563       -0.89269
C         -1.41624       -3.11512        0.69725
N         -2.45149       -2.45596        1.06846
C         -3.46172       -1.71924        0.43679
C         -4.52082       -1.47184        1.33531
C         -5.52235       -0.52890        1.10063
C         -5.49436        0.22396       -0.06233
C         -6.42872        1.37702       -0.26139
C         -4.51018       -0.06228       -1.00926
C         -3.52369       -1.06284       -0.80645
C         -2.59867       -1.25388       -1.96473
C          0.66876        0.35985        0.20761
C         -0.74318        0.85770        0.22065
C          1.69476        1.29033        0.42002
H          3.99965        2.52439       -0.34060
H          4.14108        2.47168        1.43869
H          5.09714        1.37368        0.40922
H          4.27507       -0.85699        0.89924
H          2.52760       -2.47030        0.31935
H         -0.10888       -3.09210       -2.35432
H         -0.49577       -5.15784       -1.77043
H         -0.81822       -5.55880       -0.08605
H         -2.14325       -5.00091       -1.13406
H         -0.86952       -3.59535        1.52921
H         -4.52038       -1.99533        2.29070
H         -6.27768       -0.35670        1.86167
H         -5.92475        2.30909        0.01694
H         -6.74821        1.44518       -1.30583
H         -7.32616        1.27109        0.35582
H         -4.48635        0.52898       -1.92546
H         -3.03429       -0.86603       -2.89435
H         -1.67332       -0.70243       -1.81995
H         -2.43260       -2.31264       -2.15706
H         -0.83878        1.70747        0.90976
H         -1.07746        1.17946       -0.76632
H         -1.40342        0.09167        0.62666
H          1.46117        2.35337        0.41876
