20

S          1.61732       -0.93959        1.14049
C          2.88489       -0.37306        0.35840
N          3.81101        0.07716       -0.20900
C          4.53560       -0.90395       -0.91011
C          4.19756       -1.23411       -2.22637
C          4.93487       -2.18895       -2.93075
C          6.03775       -2.82106       -2.33724
C          6.78989       -3.78266       -3.03064
C          7.88965       -4.39681       -2.42949
C          8.25188       -4.05683       -1.12946
C          7.51449       -3.10277       -0.42642
C          6.40378       -2.47713       -1.01567
C          5.65036       -1.51536       -0.32149
H          3.35634       -0.74417       -2.71042
H          4.64444       -2.43073       -3.95084
H          6.52467       -4.06038       -4.04840
H          8.46373       -5.13929       -2.97783
H          9.10935       -4.53343       -0.66125
H          7.81473       -2.85078        0.58840
H          5.93147       -1.23250        0.69066
