56

C          1.31411       -0.27184        0.29933
C          1.09528        0.77782        1.37926
C          1.64459        2.16378        1.02374
C          1.17421        2.74522       -0.31321
C         -0.34356        2.79976       -0.49819
C         -1.04546        3.90887        0.29323
C         -0.97152        5.29630       -0.35227
C         -1.62293        5.43348       -1.73286
C         -3.11902        5.69038       -1.67121
O         -3.51890        6.85820       -1.65485
N         -4.02148        4.64304       -1.57631
C         -3.69359        3.23513       -1.75062
C         -5.45806        4.95672       -1.46441
C         -5.90094        5.54033       -0.09562
O         -5.39726        6.86575        0.11321
C         -7.45478        5.58366       -0.01151
O         -7.98366        4.25352        0.10245
C         -7.97972        6.46539        1.16150
O         -7.56948        7.83004        0.99465
C         -9.52828        6.40605        1.26141
O         -9.96738        5.10813        1.67572
C        -10.09585        7.45136        2.23535
O         -9.88461        8.78587        1.78280
H          0.75210       -0.03964       -0.61038
H          0.97292       -1.25032        0.65237
H          2.37359       -0.35395        0.03863
H          0.02613        0.84463        1.60999
H          1.58421        0.43920        2.30051
H          1.39193        2.85745        1.83405
H          2.74049        2.10943        1.00147
H          1.60260        3.74682       -0.43658
H          1.59760        2.14028       -1.12459
H         -0.53525        2.90920       -1.56817
H         -0.79369        1.84031       -0.22467
H         -2.09718        3.64116        0.43381
H         -0.62314        3.96698        1.30329
H         -1.43316        6.01648        0.33601
H          0.08262        5.58644       -0.43535
H         -1.19628        6.32936       -2.20677
H         -1.38036        4.62738       -2.42433
H         -3.88466        2.71082       -0.81032
H         -4.33227        2.81381       -2.53333
H         -2.66457        3.07611       -2.05680
H         -5.69636        5.67069       -2.26196
H         -6.01589        4.03637       -1.66988
H         -5.50608        4.90568        0.70670
H         -4.65894        7.02214       -0.51915
H         -7.83934        6.02321       -0.94160
H         -8.02304        3.86673       -0.79109
H         -7.55654        6.09123        2.10220
H         -6.60271        7.79625        0.80133
H         -9.95108        6.60917        0.26928
H         -9.42532        4.45941        1.18031
H        -11.17448        7.30647        2.35711
H         -9.64722        7.34122        3.22861
H         -8.94126        8.82692        1.50927
