17

C          0.64044       -0.29088        0.08796
O          0.40563        0.11202       -1.24700
C          0.92312        1.39469       -1.59281
O          0.42241        2.45306       -0.77782
C         -0.96610        2.66823       -0.98615
O          2.34040        1.43971       -1.75809
C          3.09089        1.62922       -0.57463
H         -0.08107       -1.07515        0.33434
H          0.50806        0.52661        0.80261
H          1.63683       -0.72678        0.18237
H          0.55485        1.57016       -2.60950
H         -1.16691        2.93578       -2.02800
H         -1.54457        1.78321       -0.70524
H         -1.28167        3.50034       -0.35037
H          2.65670        2.38267        0.08804
H          3.21933        0.68510       -0.04292
H          4.08859        1.97370       -0.86292
