20

F          0.91874        0.02032       -0.08020
C          2.27367       -0.04568       -0.07259
F          2.69474        0.75472        0.93850
C          2.75726       -1.46989        0.11105
F          2.34833       -2.21586       -0.95482
F          4.12002       -1.48325        0.06141
C          2.26055       -2.07180        1.41094
F          2.67549       -1.31655        2.46451
F          0.90008       -2.05070        1.44615
C          2.75733       -3.49668        1.57208
F          2.34451       -4.25511        0.51975
F          4.11791       -3.52179        1.53695
C          2.26327       -4.09878        2.86749
F          2.67747       -3.35355        3.93139
F          0.90066       -4.08828        2.91223
C          2.77537       -5.51956        2.99895
F          2.34881       -6.31670        1.99187
F          4.12727       -5.58129        3.01197
F          2.34886       -6.09021        4.15393
H          2.63932        0.37495       -1.01331
