40

C          0.97750        0.61587        0.72087
C          0.73842        1.18373       -0.69647
C         -0.62777        1.90903       -0.66518
C          1.85974        2.22571       -0.97183
C          1.75357        2.89695       -2.34221
C          1.74626        1.88737       -3.43699
O          0.44059        1.44717       -3.84033
C          1.25011        0.49119       -3.15259
C          1.70527       -0.74384       -3.91997
C          3.21885       -0.72512       -4.20373
C          0.96932       -0.94428       -5.24893
C          1.38048       -1.84575       -2.84530
C         -0.13513       -2.03439       -2.64868
C         -0.57416       -0.72412       -1.97134
C          0.75885        0.05248       -1.76965
C          1.72734       -1.13347       -1.52168
H          0.26029       -0.17582        0.96193
H          0.87374        1.39821        1.48194
H          1.98702        0.20270        0.82501
H         -1.41939        1.25647       -0.28024
H         -0.59259        2.78457       -0.00623
H         -0.93861        2.25255       -1.65598
H          2.83918        1.73497       -0.89447
H          1.84445        3.00703       -0.20072
H          2.61181        3.56604       -2.47424
H          0.86137        3.53050       -2.40098
H          2.46860        2.07831       -4.21720
H          3.55212       -1.69508       -4.59054
H          3.47265        0.03245       -4.95332
H          3.81367       -0.49880       -3.31386
H         -0.11716       -0.86856       -5.14588
H          1.26116       -0.17455       -5.97345
H          1.20560       -1.92059       -5.68551
H          1.90759       -2.78919       -3.00817
H         -0.32523       -2.87620       -1.97138
H         -0.68558       -2.23720       -3.57001
H         -1.06492       -0.95352       -1.01931
H         -1.28436       -0.17812       -2.60168
H          2.77547       -0.83203       -1.44411
H          1.46668       -1.73804       -0.64536
