10

C          0.96835       -0.04341       -0.10829
C          0.41594       -0.34612       -1.47818
O         -0.32349       -1.31525       -1.66215
C          0.84090        0.54705       -2.61773
Cl         0.22988        2.18844       -2.36078
H          0.70547       -0.85350        0.57819
H          0.54550        0.88844        0.27299
H          2.05781        0.02732       -0.15877
H          1.93168        0.56867       -2.68664
H          0.43087        0.16850       -3.55799
