34

C          1.16769       -0.12921        0.09742
C          0.86413       -1.36368       -0.73228
N          1.56039       -2.52727       -0.22167
C          1.10536       -3.49736        0.62584
O          1.89690       -4.35787        1.01384
C         -0.36362       -3.52146        1.02888
O         -0.70293       -2.36355        1.79396
C         -1.57035       -2.58028        2.80937
O         -2.06685       -3.63554        3.15777
C         -1.92316       -1.27373        3.37501
C         -1.01430       -0.60676        4.20301
C         -1.36492        0.62777        4.75562
C         -2.61135        1.19554        4.47541
C         -3.51661        0.53229        3.64455
C         -3.16530       -0.70068        3.09066
O         -4.12303       -1.40229        2.34663
C         -4.39015       -0.86045        1.10119
C         -3.23994       -0.97554        0.14121
O         -5.49654       -0.44024        0.78546
H          0.82686       -0.24802        1.13016
H          0.67261        0.74866       -0.32871
H          2.24523        0.06578        0.12560
H         -0.21250       -1.54682       -0.76491
H          1.21236       -1.21203       -1.75926
H          2.55264       -2.60836       -0.41319
H         -0.97689       -3.54244        0.12161
H         -0.54056       -4.45486        1.57511
H         -0.04986       -1.05120        4.43707
H         -0.67370        1.14245        5.42041
H         -2.88609        2.14836        4.92410
H         -4.49775        0.96343        3.45742
H         -2.93293       -2.02152        0.06574
H         -3.56951       -0.65579       -0.85205
H         -2.40569       -0.34038        0.44383
