31

O          1.15707       -0.26570       -0.17892
C          2.37371       -0.09441       -0.17571
N          3.17747       -0.98355        0.47761
C          4.54761       -0.95264        0.79445
C          5.17106       -2.17702        1.05902
C          6.53938       -2.23193        1.33587
C          7.28952       -1.05938        1.37998
C          6.66713        0.16842        1.16957
C          5.29925        0.22219        0.88801
N          2.99437        0.90587       -0.86018
C          2.27897        1.81878       -1.72459
C          2.83128        3.23519       -1.63062
C          2.31271        3.89794       -2.89692
C          2.28596        2.79375       -3.95193
C          2.46911        1.47516       -3.20214
H          2.66418       -1.81576        0.74106
H          4.60840       -3.10635        1.01776
H          7.01941       -3.19121        1.51164
H          8.35474       -1.10088        1.59225
H          7.24295        1.08828        1.23515
H          4.83705        1.20039        0.79019
H          3.94574        0.69764       -1.12525
H          1.20988        1.81889       -1.47882
H          2.49564        3.75082       -0.72523
H          3.92847        3.23243       -1.62519
H          2.93480        4.74524       -3.20073
H          1.29602        4.27428       -2.73293
H          3.08905        2.93014       -4.68467
H          1.33783        2.80952       -4.49976
H          3.48090        1.09166       -3.38867
H          1.76833        0.70507       -3.54001
