20

Br         1.12262       -0.37945       -0.12931
C          3.04091       -0.05826       -0.07930
C          3.37290        1.38530       -0.42855
C          2.93595        2.43423        0.60289
C          3.51461        2.26402        2.01146
C          5.04600        2.28048        2.10953
C          5.72413        3.54248        1.59614
Br         5.34096        5.07087        2.73748
H          3.39509       -0.35437        0.91022
H          3.46947       -0.73911       -0.82073
H          4.45599        1.46464       -0.57870
H          2.91680        1.64259       -1.39302
H          3.20118        3.42673        0.21932
H          1.84240        2.43759        0.67999
H          3.09900        3.05228        2.65000
H          3.15139        1.32292        2.44150
H          5.32382        2.11670        3.15854
H          5.44647        1.42295        1.55619
H          6.81193        3.42793        1.61852
H          5.42365        3.81041        0.58116
