19

C         -1.14347        1.15852       -0.16079
C         -1.61943       -0.09484       -0.16293
C         -0.91088       -1.33906        0.27712
C          0.49115       -1.54547       -0.28831
C          1.53632       -0.57698        0.25538
C          1.39862        0.84324       -0.28310
C          0.21176        1.61764        0.28238
H         -1.81860        1.95219       -0.47970
H         -2.65083       -0.23944       -0.48344
H         -1.52165       -2.19203       -0.04706
H         -0.89626       -1.38004        1.37285
H          0.46916       -1.49918       -1.38433
H          0.80963       -2.56334       -0.02925
H          1.51817       -0.57247        1.35187
H          2.52528       -0.95204       -0.03694
H          2.31189        1.39209       -0.01982
H          1.35403        0.82740       -1.37929
H          0.32147        2.66187       -0.03892
H          0.24821        1.63578        1.37822
