66

C          0.98947       -0.10173        0.41276
C          0.55960        1.19165        1.09075
C          1.03194        2.45540        0.36494
C          0.59913        2.57079       -1.10146
C         -0.92579        2.59002       -1.35290
C         -1.64379        3.77434       -0.67073
C         -1.21733        5.15679       -1.15003
C         -1.24923        2.54744       -2.86115
O         -0.75030        1.33425       -3.45162
C          0.37506        1.45390       -4.19393
O          1.01484        2.46048       -4.44127
C          0.77433        0.10658       -4.61608
C          1.71250       -0.59585       -3.85323
C          2.08029       -1.88499       -4.23901
C          1.52970       -2.45145       -5.39703
C          1.90202       -3.83955       -5.74338
O          2.09317       -4.70256       -4.90402
O          2.03466       -3.95645       -7.08580
C          2.35857       -5.26608       -7.58963
C          3.84382       -5.36408       -7.99018
C          4.80709       -5.16086       -6.79631
C          4.81693       -6.28436       -5.76686
C          4.15198       -6.69187       -8.71677
C          3.45715       -6.89655      -10.06924
C          3.71602       -5.81601      -11.12098
C          5.18828       -5.63482      -11.45640
C          0.60419       -1.73277       -6.16746
C          0.22039       -0.44924       -5.77276
H          0.48280       -0.23871       -0.54737
H          0.73544       -0.95996        1.04311
H          2.07018       -0.11654        0.23943
H         -0.53014        1.20045        1.20109
H          0.97314        1.20510        2.10646
H          0.69674        3.33521        0.92517
H          2.12894        2.48160        0.39527
H          1.05411        3.47187       -1.52959
H          1.05225        1.73427       -1.64096
H         -1.33749        1.66748       -0.92331
H         -2.72462        3.67338       -0.83147
H         -1.49862        3.71884        0.41401
H         -1.44167        5.30200       -2.21073
H         -1.76032        5.92781       -0.59355
H         -0.14903        5.32967       -0.99398
H         -2.33635        2.53202       -3.00125
H         -0.87479        3.43292       -3.38542
H          2.14505       -0.14994       -2.96097
H          2.79375       -2.44779       -3.63970
H          2.06870       -6.05733       -6.88950
H          1.72696       -5.39317       -8.47446
H          4.05298       -4.52812       -8.66972
H          5.82799       -5.05050       -7.18455
H          4.58011       -4.21405       -6.29424
H          5.27886       -7.18909       -6.17365
H          5.40260       -5.98312       -4.89222
H          3.81238       -6.54196       -5.42417
H          5.23555       -6.78050       -8.86373
H          3.86575       -7.53254       -8.07174
H          3.78364       -7.86344      -10.47382
H          2.37560       -6.98939       -9.91843
H          3.18223       -6.09423      -12.03786
H          3.29235       -4.85918      -10.79767
H          5.63888       -6.58152      -11.77085
H          5.30149       -4.91729      -12.27533
H          5.75099       -5.25089      -10.60037
H          0.16613       -2.17462       -7.05926
H         -0.50619        0.10904       -6.35765
