22

Cl        -2.17480        2.25091       -0.05816
C         -0.97807        1.01651       -0.02584
C         -1.36068       -0.31229        0.10754
C         -0.38608       -1.31558        0.13836
Cl        -0.95040       -2.94309        0.33496
C          0.98917       -1.01223        0.02981
C          2.01603       -2.07229        0.06079
C          2.82935       -2.25308        1.19076
C          3.80202       -3.25680        1.22043
C          3.97191       -4.10369        0.12318
Cl         5.18754       -5.32600        0.23060
C          3.16776       -3.94030       -1.00830
Cl         3.31118       -4.95371       -2.40080
C          2.20119       -2.92765       -1.03863
C          1.33825        0.34935       -0.10835
Cl         2.98734        0.85818       -0.27318
C          0.36519        1.35444       -0.13256
H         -2.41412       -0.56950        0.19116
H          2.71453       -1.60677        2.05988
H          4.42398       -3.37198        2.10519
H          1.58137       -2.80947       -1.92591
H          0.65717        2.39686       -0.23777
