28

C          1.23640        0.31225       -0.02159
C          0.55982        0.52613       -1.36694
C          0.82895       -0.59584       -2.37535
N          0.45203       -1.95882       -1.99864
C          1.20147       -3.01555       -2.53869
O          2.17352       -2.83950       -3.27085
C          0.79302       -4.43073       -2.20032
C          1.61366       -5.56437       -2.73112
C         -0.29979       -4.63487       -1.44847
N         -1.04942       -3.57243       -0.98973
N         -2.16471       -3.58469       -0.23102
C         -2.45021       -2.29275       -0.13903
N         -3.47061       -1.77051        0.53280
N         -1.58882       -1.45014       -0.75696
C         -0.70030       -2.26327       -1.27731
H          0.87435       -0.59034        0.47851
H          1.02972        1.16104        0.63849
H          2.32123        0.22902       -0.13725
H         -0.51455        0.67565       -1.22354
H          0.93351        1.46463       -1.79539
H          0.30285       -0.37312       -3.31201
H          1.89954       -0.57832       -2.61447
H          2.05787       -6.13083       -1.90586
H          0.98888       -6.24312       -3.32197
H          2.43082       -5.23337       -3.37807
H         -0.65645       -5.61771       -1.16781
H         -3.41143       -0.78885        0.76987
H         -3.91140       -2.35027        1.23429
