38

O          0.83739       -0.73867        1.67445
C          0.35471        0.46477        1.05254
C          0.25499        1.54026        2.12990
O          1.45645        1.53360        2.92756
C         -0.06056        2.98584        1.67562
O          1.08483        3.73589        1.24348
C          1.26220        4.09020       -0.12200
O          1.88059        3.14212       -1.00814
C          2.87440        2.31488       -0.59860
C          3.59365        2.40169        0.58702
C          4.45525        1.36217        0.95038
C          4.62065        0.25510        0.11752
C          3.95255        0.19921       -1.10201
C          3.09460        1.23522       -1.46254
C         -0.06117        4.49580       -0.80684
O          0.12164        4.76127       -2.20819
C         -1.10560        3.38761       -0.63190
O         -0.68129        2.16863       -1.25340
C         -1.35499        3.19579        0.86548
O         -2.33742        2.18736        1.10123
H          1.00391       -1.36457        0.94724
H          1.06418        0.72766        0.27804
H         -0.61458        0.24768        0.59869
H         -0.53393        1.21958        2.82243
H          1.75822        0.60208        2.90095
H         -0.27659        3.47188        2.63933
H          1.92152        4.96707       -0.13302
H          3.46293        3.23006        1.27580
H          4.97212        1.40441        1.90609
H          5.26351       -0.56541        0.42343
H          4.07343       -0.65841       -1.75725
H          2.54005        1.17189       -2.39595
H         -0.44520        5.41376       -0.34616
H          0.92939        4.27948       -2.47694
H         -2.04156        3.65871       -1.13361
H         -0.51062        2.38669       -2.18783
H         -1.80388        4.13563        1.21526
H         -2.59204        2.22082        2.03967
