26

C          1.05786        0.14356        0.11061
C          0.51669       -1.05514       -0.66101
C          0.89576       -2.40071       -0.09046
N          1.74721       -2.41501        0.96327
C          2.07180       -3.62915        1.47528
C          2.92436       -3.78000        2.54567
N          3.27591       -4.96031        3.09894
C          2.72727       -6.03503        2.52652
N          1.89101       -6.02432        1.48412
C          1.57356       -4.83474        0.97084
N          0.74181       -4.80194       -0.07302
C          0.40546       -3.59831       -0.61657
C         -0.53496       -3.66744       -1.79298
C          0.08106       -4.41184       -2.96996
H          0.70288        0.14057        1.14695
H          0.72272        1.07488       -0.35724
H          2.15285        0.14825        0.12454
H         -0.57644       -0.97390       -0.67618
H          0.87804       -0.99776       -1.69444
H          3.36856       -2.90361        3.00927
H          2.98206       -7.00350        2.94388
H         -1.45053       -4.17953       -1.47360
H         -0.84145       -2.67420       -2.13211
H          0.30249       -5.45339       -2.71337
H         -0.61131       -4.41641       -3.81791
H          1.01426       -3.93836       -3.29307
