29

C          1.02751       -0.12886       -0.09082
C          0.44573        0.57965        1.15693
C          0.97405        2.01688        1.16582
C         -1.08020        0.57074        1.02915
S          1.02738       -0.38462        2.61660
O          0.43933       -1.70975        2.49136
O          2.47841       -0.27431        2.62702
C          0.44572        0.28911        4.23107
C          0.97405        1.70256        4.49160
C         -1.08020        0.25641        4.35492
C          1.02751       -0.64062        5.32399
H          0.72993        0.38113       -1.01423
H          0.67994       -1.16575       -0.15969
H          2.12273       -0.15006       -0.06369
H          0.83456        2.49051        0.18662
H          0.43929        2.64261        1.88145
H          2.04164        2.05974        1.40361
H         -1.49738       -0.43164        1.16815
H         -1.55276        1.24025        1.74891
H         -1.39140        0.92348        0.03852
H          0.43930        2.45128        3.90587
H          0.83456        1.98434        5.54220
H          2.04164        1.78921        4.26605
H         -1.49738       -0.70217        4.03058
H         -1.39140        0.41732        5.39409
H         -1.55276        1.04892        3.77333
H          0.67993       -1.67205        5.19738
H          2.12273       -0.65636        5.29337
H          0.72993       -0.31267        6.32659
