23

C          0.81452        0.39579       -0.07802
C          0.58811       -0.53550       -1.26991
O          1.60424       -0.36103       -2.26485
C          2.81566       -1.08559       -2.07007
O          3.58911       -0.55350       -0.99903
C          2.56126       -2.59473       -1.89528
O          3.78104       -3.31571       -1.68704
C          1.61763       -2.82256       -0.71330
O          2.26000       -2.40747        0.51104
C          0.32857       -2.02189       -0.92693
O         -0.53506       -2.18125        0.20035
H         -0.05491        0.40782        0.58670
H          0.98588        1.41951       -0.42856
H          1.68483        0.12056        0.51960
H         -0.33427       -0.16484       -1.73628
H          3.42227       -0.93858       -2.96964
H          3.30543       -1.02064       -0.18874
H          2.09057       -2.99001       -2.80309
H          4.27621       -2.82968       -1.00008
H          1.40206       -3.89182       -0.60098
H          1.94386       -3.02223        1.20179
H         -0.18736       -2.46844       -1.78648
H         -0.07542       -1.81240        0.97407
