73

C          0.96826        0.11195       -0.11390
C          0.55543       -1.33542       -0.33288
C          1.02671       -2.27859        0.77690
C          0.49618       -1.96544        2.18092
C         -1.02968       -1.96492        2.33200
C         -1.73450       -3.25839        1.90243
C         -1.30998       -4.51138        2.68627
O         -1.74017       -4.39169        4.04372
C         -1.91416       -5.80459        2.10763
C         -1.37899       -6.10883        0.73568
C         -0.44710       -7.03996        0.48407
C          0.16893       -7.24323       -0.87099
C          1.66759       -6.91105       -0.88656
C          2.55350       -7.78289        0.01499
C          2.45850       -9.28848       -0.24182
C          3.04397       -9.72788       -1.59073
C          4.42435      -10.38302       -1.48399
C          4.47264      -11.71600       -0.73169
C          4.03092      -12.89202       -1.57901
O          4.83915      -13.51163       -2.27386
N          2.72411      -13.27173       -1.61566
C          1.61246      -12.84441       -0.78281
C          0.38659      -12.47628       -1.62016
C         -0.45113      -13.68237       -2.06839
N         -1.58721      -13.99902       -1.18481
C         -2.39439      -15.06952       -1.77792
C         -1.18889      -14.37313        0.16976
H          0.46982        0.54320        0.75911
H          0.69414        0.71705       -0.98410
H          2.05043        0.19494        0.02825
H         -0.53217       -1.39228       -0.44888
H          0.98593       -1.67866       -1.28163
H          0.75712       -3.30540        0.50279
H          2.12344       -2.25781        0.81285
H          0.92962       -2.68801        2.88234
H          0.87547       -0.98792        2.50170
H         -1.27655       -1.74434        3.37716
H         -1.44778       -1.13605        1.74805
H         -2.81291       -3.10643        2.04038
H         -1.57479       -3.39812        0.82904
H         -0.21942       -4.61627        2.69631
H         -1.21341       -3.68648        4.45623
H         -1.70519       -6.63500        2.79523
H         -3.00784       -5.73069        2.06823
H         -1.75459       -5.49431       -0.07959
H         -0.08040       -7.66444        1.29600
H         -0.00909       -8.27163       -1.20134
H         -0.32714       -6.60089       -1.60975
H          2.02492       -6.97230       -1.92044
H          1.80408       -5.86412       -0.58404
H          3.59678       -7.46323       -0.09717
H          2.29342       -7.59421        1.06371
H          2.96245       -9.79839        0.58550
H          1.41167       -9.60504       -0.18432
H          2.35620      -10.42248       -2.07846
H          3.12380       -8.87453       -2.27251
H          4.81060      -10.53158       -2.50047
H          5.10413       -9.67653       -0.99222
H          5.51874      -11.91615       -0.46266
H          3.93956      -11.69508        0.22043
H          2.59114      -14.09805       -2.18745
H          1.41126      -13.66422       -0.08958
H          1.90518      -11.98752       -0.17879
H         -0.24514      -11.77765       -1.05722
H          0.71118      -11.93270       -2.51662
H         -0.86601      -13.41980       -3.05110
H          0.18717      -14.56091       -2.22517
H         -1.82477      -15.99934       -1.88895
H         -3.27626      -15.27580       -1.16115
H         -2.76777      -14.77151       -2.76396
H         -0.47933      -15.20778        0.17651
H         -0.74371      -13.52191        0.69462
H         -2.06174      -14.66208        0.76636
