36

C          0.92800        0.03224        0.31016
C          0.51695        1.48972        0.16274
C          0.99042        2.13301       -1.14460
C          0.54216        1.41964       -2.42538
C         -0.98579        1.32287       -2.63710
C         -1.67701        2.69806       -2.75300
C         -1.24326        3.54852       -3.94038
C         -1.32166        0.42946       -3.84732
O         -0.91052       -0.92728       -3.58803
C          0.21365       -1.36414       -4.21132
O          0.88408       -0.69989       -4.99327
C          0.54009       -2.80055       -3.87669
C          0.19098       -3.24422       -2.46232
S         -1.56877       -3.65818       -2.24865
H          0.40358       -0.60000       -0.41066
H          0.67551       -0.33427        1.31006
H          2.00547       -0.09300        0.16349
H         -0.57148        1.57109        0.25486
H          0.94201        2.05708        0.99913
H          0.66701        3.17946       -1.16517
H          2.08777        2.15825       -1.14005
H          1.00158        1.92295       -3.28444
H          0.97989        0.41673       -2.41216
H         -1.40725        0.82074       -1.75670
H         -2.76166        2.54448       -2.81944
H         -1.51470        3.27062       -1.83287
H         -1.49149        3.06707       -4.89077
H         -1.76209        4.51264       -3.91649
H         -0.16948        3.75350       -3.92391
H         -2.40799        0.39520       -3.98963
H         -0.89099        0.81609       -4.77700
H          0.09106       -3.45066       -4.63424
H          1.63065       -2.88433       -3.97564
H          0.75565       -4.15091       -2.22138
H          0.46339       -2.48159       -1.72817
H         -2.03265       -2.41428       -2.45835
