22

C          0.87391       -0.04231       -0.17961
N          0.36019       -1.39314       -0.03327
C         -0.22057       -1.74795        1.25399
C          0.72475       -2.31763       -1.01357
O          1.45544       -2.03346       -1.96232
C          0.24521       -3.71839       -0.91838
C         -1.10611       -4.02211       -0.71693
C         -1.51541       -5.35680       -0.64523
C         -0.57938       -6.38020       -0.80098
Cl        -1.08702       -8.02145       -0.71040
C          0.76206       -6.08327       -1.03876
C          1.17437       -4.75047       -1.10350
H          0.32980        0.64873        0.46992
H          0.76846        0.28890       -1.21717
H          1.93608       -0.04383        0.08510
H         -1.30885       -1.77084        1.14829
H          0.14113       -2.72368        1.58749
H          0.04097       -1.00160        2.00995
H         -1.84451       -3.22955       -0.63376
H         -2.56358       -5.59220       -0.47939
H          1.48811       -6.87952       -1.18072
H          2.21784       -4.51392       -1.30308
