24

C          1.10072        0.06625        0.04874
C          0.53614        0.92929        1.20087
C          1.03440        2.37182        0.95256
C         -1.00301        0.93343        1.11526
C          0.94089        0.37210        2.57771
C          0.88638       -1.01111        2.83834
C          1.22127       -1.53300        4.09172
C          1.60685       -0.68295        5.12118
C          1.65545        0.68827        4.89636
C          1.32429        1.20900        3.64060
H          0.87222        0.51187       -0.92693
H          0.67531       -0.94260        0.03369
H          2.19007       -0.03019        0.12406
H          0.78595        2.70707       -0.06168
H          0.57253        3.09017        1.63897
H          2.12259        2.44256        1.06544
H         -1.41728       -0.07615        1.21933
H         -1.44289        1.55059        1.90786
H         -1.34567        1.33257        0.15377
H          0.56858       -1.71090        2.06988
H          1.17236       -2.60543        4.26184
H          1.86140       -1.08613        6.09723
H          1.94622        1.35976        5.69999
H          1.36690        2.28812        3.52326
