24

C          1.12430        0.11147       -0.02700
O          0.51760        0.65008       -1.20325
C          1.23565        1.62689       -1.81072
O          2.30507        2.08061       -1.44106
C          0.55889        2.03233       -3.06702
C          1.34417        2.51562       -4.12024
C          0.74257        2.87768       -5.32604
C         -0.64307        2.76883       -5.46924
O         -1.14583        3.18083       -6.74094
C         -2.26933        2.90329       -7.52858
C         -3.25589        1.93502       -6.96030
O         -2.42682        3.44194       -8.62002
C         -1.44082        2.34226       -4.41355
C         -0.83413        1.95669       -3.21330
H          0.67916       -0.86948        0.16224
H          0.91083        0.76380        0.82409
H          2.20400       -0.02501       -0.14765
H          2.42323        2.60200       -4.00690
H          1.35162        3.24470       -6.14860
H         -3.87852        2.43632       -6.21617
H         -3.90852        1.58333       -7.76609
H         -2.75616        1.05600       -6.54943
H         -2.52051        2.31093       -4.47682
H         -1.45616        1.61221       -2.38990
