75

C          0.72314       -0.25818        0.68064
C         -0.08643       -1.54444        0.53127
N          0.27768       -2.63260        1.43788
C         -0.71648       -3.70457        1.51302
C         -0.82233       -4.65638        0.33011
C          1.67430       -3.09253        1.40822
C          2.29488       -3.37188        0.04932
O          3.31214       -2.77395       -0.29530
O          1.69736       -4.37795       -0.63157
C          2.15074       -4.93089       -1.88070
C          1.54021       -4.41937       -3.22249
O          0.84505       -5.16080       -3.92346
C          1.82844       -2.97737       -3.65017
O          1.42229       -2.21000       -2.49995
C          1.02550       -2.32524       -4.78271
C          1.75854       -0.96108       -4.90698
C          3.19568       -1.43758       -4.99923
C          4.45164       -0.62876       -4.77539
C          4.47954        0.83403       -5.17194
C          5.74757        1.41395       -4.53396
C          6.98749        0.72509       -5.06414
C          8.01042        1.49120       -5.48136
C          9.26608        0.91207       -6.00540
O         10.18358        1.66645       -6.32126
C          9.39606       -0.58774       -6.08444
C          8.03361       -1.26106       -6.18903
C          7.03959       -0.82351       -5.07721
C          7.59313       -1.25910       -3.69769
C          5.62477       -1.44263       -5.43303
C          5.44868       -3.04958       -5.42149
O          6.49556       -3.73094       -4.73884
C          4.07232       -3.67014       -4.96341
C          3.30597       -2.68962       -4.06003
C          4.15339       -2.50104       -2.79182
H          0.61545        0.16456        1.68501
H          0.35287        0.49033       -0.03072
H          1.78686       -0.40247        0.47323
H         -1.13175       -1.26660        0.71702
H         -0.04489       -1.87624       -0.50536
H         -0.52059       -4.29792        2.41487
H         -1.70229       -3.25571        1.67917
H         -0.05213       -5.43223        0.39095
H         -1.78170       -5.17852        0.34193
H         -0.74839       -4.13537       -0.62993
H          2.29086       -2.31593        1.88263
H          1.82458       -3.98161        2.03179
H          3.23745       -4.99951       -1.93630
H          1.84698       -5.98521       -1.82967
H          0.44841       -2.26123       -2.45945
H          1.09386       -2.90266       -5.71351
H         -0.03458       -2.17849       -4.55096
H          1.43913       -0.41695       -5.80143
H          1.59029       -0.31860       -4.03685
H          3.23529       -1.74899       -6.05765
H          4.62512       -0.54939       -3.70437
H          4.48433        0.96508       -6.25843
H          3.60403        1.35640       -4.76976
H          5.77474        2.49559       -4.70529
H          5.71667        1.28663       -3.44112
H          7.98416        2.57432       -5.43048
H          9.97987       -0.83192       -6.97824
H          9.94933       -0.93793       -5.20766
H          7.60659       -1.00967       -7.17053
H          8.17319       -2.34778       -6.18507
H          6.86005       -1.14541       -2.89686
H          7.95011       -2.29294       -3.69702
H          8.45888       -0.65791       -3.39500
H          5.48181       -1.21558       -6.50388
H          5.58213       -3.36576       -6.46425
H          6.22339       -3.90817       -3.82279
H          3.47308       -3.89587       -5.85663
H          4.22246       -4.63140       -4.45671
H          5.20680       -2.32485       -2.97488
H          3.79433       -1.65540       -2.19873
H          4.19621       -3.40515       -2.20198
