78

C          1.22426        1.03363        1.11984
O          1.03813        1.92287        2.21955
C         -0.20293        1.93597        2.80999
C         -0.55303        3.18479        3.36321
C         -1.86372        3.46586        3.78971
C         -2.42082        4.87921        4.06872
C         -3.18723        5.50953        2.87563
C         -4.54681        5.31256        2.60576
C         -5.13023        6.10452        1.62500
C         -4.44304        7.11703        0.99442
C         -3.11705        7.34293        1.23233
C         -2.47039        6.43879        2.07627
C         -0.97382        6.33018        2.15991
O         -0.34671        6.78069        0.95387
C          0.30099        5.69505        0.20092
O         -0.30151        4.39479        0.29084
C         -1.60146        4.32477       -0.27055
C         -2.22458        2.96753       -0.03763
O         -3.56814        2.99772       -0.45535
C         -3.74531        3.40836       -1.80482
C         -5.23542        3.65755       -1.96978
C         -5.89679        4.35294       -2.96850
C         -7.31249        4.39450       -2.77954
C         -7.70390        3.72514       -1.64406
S         -6.38312        2.99684       -0.85219
O         -3.04813        4.62373       -2.15274
C         -1.66262        4.61025       -1.75649
C         -0.91260        5.93813       -2.05780
O         -1.68247        7.09789       -1.72548
C          0.44873        6.00601       -1.31176
O          1.09964        7.25950       -1.51817
C         -0.58066        6.78608        3.56342
C         -0.89118        8.24050        3.87053
O         -1.94550        8.27002        4.82980
C         -2.21676        7.03138        5.31040
O         -3.03107        6.82009        6.19871
C         -1.40191        5.96651        4.61349
O         -5.19853        7.80766        0.10331
C         -6.38321        6.99213        0.09879
O         -6.41583        6.03080        1.17920
C         -2.73873        2.36611        3.88266
C         -2.37315        1.07720        3.45379
O         -3.35637        0.13461        3.60808
C         -2.96312       -1.23182        3.70950
C         -1.12942        0.88908        2.84008
O         -0.85379       -0.28024        2.18596
H          0.36721        1.02594        0.43584
H          1.46322        0.02619        1.47392
H          2.08391        1.38637        0.54061
H          0.21589        3.95187        3.34419
H         -3.16922        4.73348        4.86124
H         -5.13864        4.57560        3.13526
H         -2.59673        8.14648        0.72540
H         -0.75412        5.27862        2.18656
H          1.30329        5.61154        0.63712
H         -2.26199        5.03801        0.20312
H         -2.23069        2.73849        1.02375
H         -1.68078        2.15889       -0.53658
H         -3.42923        2.60266       -2.47741
H         -5.37840        4.83345       -3.78894
H         -8.00782        4.90544       -3.43343
H         -8.70297        3.61570       -1.24303
H         -1.14678        3.81248       -2.30777
H         -0.74584        6.01305       -3.13753
H         -1.68833        7.17503       -0.75857
H          1.09008        5.22850       -1.74695
H          0.48888        7.94495       -1.18713
H          0.49605        6.62508        3.69178
H         -0.03299        8.74821        4.32190
H         -1.19293        8.82278        2.99411
H         -0.72659        5.53776        5.36267
H         -7.25801        7.64536        0.17454
H         -6.42666        6.46542       -0.86018
H         -3.74485        2.50870        4.27545
H         -2.96989       -1.68910        2.71496
H         -1.99426       -1.37045        4.20105
H         -3.71485       -1.75769        4.30556
H         -1.65814       -0.48560        1.67686
