35

C         -3.01765       -0.59807        0.11361
C         -1.59404       -0.10889        0.01998
C         -0.60399       -1.11377       -0.02005
C          0.77792       -0.84933       -0.09682
C          1.75615       -2.04768       -0.08227
C          1.49204       -2.92321        1.16850
C          1.52209       -2.89939       -1.35153
C          3.26388       -1.71058       -0.05031
C          1.13456        0.50191       -0.18341
O          2.45947        0.84020       -0.22903
C          0.17401        1.54567       -0.22929
C          0.66198        2.96976       -0.40158
C         -1.21094        1.24475       -0.08337
C         -2.23642        2.36863       -0.02382
C         -2.03228        3.24655        1.20010
N         -1.86293        3.97486        2.21545
H         -3.34986       -0.95546       -0.86673
H         -3.08363       -1.42666        0.82863
H         -3.72139        0.15385        0.47057
H         -0.94103       -2.14982        0.02332
H          0.49150       -3.36781        1.16982
H          2.20237       -3.75659        1.22651
H          1.59374       -2.33412        2.08775
H          1.68317       -2.30442       -2.25848
H          2.20819       -3.75386       -1.38744
H          0.50545       -3.30424       -1.40045
H          3.58061       -1.16959       -0.94881
H          3.52776       -1.11991        0.83431
H          3.87121       -2.62368       -0.01135
H          2.58762        1.63276        0.31791
H          0.94892        3.38597        0.56918
H          1.52583        3.00904       -1.07426
H         -0.08547        3.61961       -0.86216
H         -2.15771        2.97706       -0.93239
H         -3.26753        2.01313       -0.01728
