20

C          1.23477       -0.21262       -0.16232
C          0.28048       -0.22941       -1.32796
O         -0.89250       -0.56367       -1.16034
N          0.77675        0.15838       -2.55843
C          2.10688        0.71852       -2.81389
C          1.97893        2.17552       -3.27735
O          1.10793        2.28429       -4.41604
C         -0.20505        1.77576       -4.11289
C         -0.13666        0.30263       -3.69379
H          0.74213       -0.64351        0.71480
H          1.51404        0.81837        0.07156
H          2.12076       -0.81411       -0.37954
H          2.55117        0.11316       -3.61283
H          2.75741        0.65640       -1.94005
H          1.59141        2.81176       -2.47303
H          2.96000        2.56163       -3.57074
H         -0.81956        1.88425       -5.01161
H         -0.64829        2.39244       -3.32186
H          0.27596       -0.30033       -4.51100
H         -1.13689       -0.07382       -3.46124
