65

C         -0.46035       -1.38726        1.51238
O          0.78230       -2.07409        1.36248
C          0.90973       -2.88701        0.26164
C         -0.12883       -3.77408       -0.06942
C          0.00669       -4.70650       -1.10375
N         -1.12586       -5.47568       -1.44875
N         -0.96046       -6.67165       -1.16651
C         -1.88023       -7.57251       -1.76049
C         -1.53224       -8.94344       -1.68325
Br         0.12527       -9.49800       -0.90923
C         -2.36621       -9.96884       -2.15442
C         -3.59241       -9.64383       -2.73336
N         -4.50044      -10.71398       -3.16538
O         -4.08960      -11.87939       -3.08752
O         -5.62220      -10.38392       -3.57003
C         -3.96637       -8.30829       -2.87679
C         -3.10763       -7.29506       -2.39612
N         -3.62239       -5.94904       -2.55095
O         -4.60121       -5.65954       -1.84816
O         -3.16355       -5.25809       -3.46447
C          1.26127       -4.81431       -1.73806
N          1.58498       -5.77926       -2.72646
C          0.74405       -6.18559       -3.74686
C          1.25671       -7.40083       -4.47552
O         -0.30012       -5.65677       -4.07642
C          2.30287       -3.93115       -1.38486
C          2.13286       -2.87880       -0.45948
N          3.07129       -1.82595       -0.44590
C          4.52330       -2.11342       -0.55177
C          5.19291       -1.38754       -1.74129
O          5.41285        0.00920       -1.42966
C          4.88299        1.06089       -2.09103
C          4.16720        0.80847       -3.38108
O          4.98869        2.19689       -1.63729
C          2.71227       -0.51254        0.13446
C          1.74824        0.33385       -0.72817
O          0.45641       -0.23765       -1.00577
C          0.03450       -0.68624       -2.20848
C          1.02128       -1.27784       -3.16649
O         -1.16113       -0.65320       -2.49013
H         -1.04823       -1.86299        2.30018
H         -1.05041       -1.32755        0.59308
H         -0.23085       -0.36322        1.82881
H         -1.06665       -3.74347        0.47883
H         -2.05812      -11.00844       -2.04956
H         -4.91905       -8.03970       -3.33515
H          2.56568       -5.98782       -2.85285
H          1.02762       -8.29386       -3.88921
H          0.75340       -7.47494       -5.44404
H          2.33296       -7.33389       -4.64808
H          3.22097       -3.98753       -1.96194
H          5.01054       -1.81247        0.38373
H          4.71503       -3.18669       -0.65753
H          6.19346       -1.81018       -1.88734
H          4.64150       -1.54111       -2.67033
H          3.43129        0.01927       -3.27417
H          3.60353        1.70820       -3.65321
H          4.87069        0.56808       -4.17666
H          2.37074       -0.60780        1.16626
H          3.62037        0.09021        0.25070
H          1.53348        1.24098       -0.14961
H          2.20195        0.67859       -1.65253
H          0.67607       -2.27776       -3.45086
H          1.09955       -0.65428       -4.05902
H          2.00963       -1.39872       -2.73917
