27

C          0.99984        0.05325       -0.21520
C          0.49236       -1.36590       -0.42262
C          1.01316       -2.35312        0.62902
C          0.54731       -2.06696        2.06333
O         -0.87390       -2.20109        2.13645
C          1.13854       -3.04499        3.09106
C          2.67367       -3.04804        3.21714
C          3.23838       -1.66460        3.54151
C          3.10336       -4.04786        4.29428
H          0.58416        0.49939        0.69282
H          0.70531        0.68536       -1.05895
H          2.09201        0.07364       -0.14236
H         -0.60261       -1.36648       -0.44671
H          0.82458       -1.71066       -1.40949
H          0.67104       -3.35463        0.33814
H          2.10690       -2.35786        0.57655
H          0.78989       -1.04305        2.36206
H         -1.26740       -1.46410        1.63943
H          0.69383       -2.82119        4.07095
H          0.79366       -4.06042        2.85151
H          3.11212       -3.38523        2.27085
H          2.79094       -1.25727        4.45437
H          4.32273       -1.71267        3.68889
H          3.05562       -0.95804        2.72611
H          2.73670       -5.05298        4.06078
H          4.19529       -4.09949        4.36268
H          2.71563       -3.76416        5.27861
