14

C          2.34587       -0.68299       -0.00056
C          2.30196        0.69423       -0.00183
N          1.13732        1.38296       -0.00181
C         -0.00340        0.68275       -0.00064
N         -1.15208        1.35925       -0.00072
C         -2.28169        0.64474        0.00022
N         -2.36386       -0.68856        0.00123
C         -1.17746       -1.33286        0.00135
C          0.05623       -0.72216        0.00050
N          1.22179       -1.42414        0.00064
H          3.28367       -1.22655       -0.00053
H          3.20581        1.29333       -0.00296
H         -3.21475        1.19846        0.00011
H         -1.24280       -2.41741        0.00213
