15

C         -2.72546        1.61012       -0.01853
C         -1.67164        0.54260       -0.00883
C         -2.01912       -0.81434       -0.01544
C         -1.02904       -1.79960       -0.00963
C          0.31759       -1.43709        0.00206
C          0.66855       -0.08899        0.00800
Cl         2.32987        0.36078        0.02169
C         -0.31616        0.89917        0.00241
H         -2.62247        2.25005        0.86371
H         -2.63261        2.22258       -0.92112
H         -3.73258        1.18068       -0.00524
H         -3.06497       -1.11472       -0.02524
H         -1.30865       -2.85017       -0.01463
H          1.08451       -2.20653        0.00610
H         -0.02974        1.94814        0.00655
