27

C         -0.01240        0.22892       -0.19187
C          0.83915        0.57987       -1.40642
N          1.23321       -0.59510       -2.19578
C          0.23401       -1.20572       -2.94962
N          0.61157       -2.31676       -3.63975
O         -0.93961       -0.84845       -2.98921
C          2.62194       -0.68492       -2.53483
C          3.00942       -0.54830       -3.87956
C          4.35504       -0.57585       -4.24680
C          5.33376       -0.73836       -3.27347
C          4.96618       -0.88386       -1.93562
C          3.61310       -0.87398       -1.54979
C          3.28759       -1.09474       -0.09890
H         -0.95353       -0.24911       -0.47969
H         -0.25648        1.13695        0.36940
H          0.51176       -0.45541        0.48128
H          0.26961        1.25188       -2.06134
H          1.72322        1.13893       -1.07918
H         -0.15483       -2.84207       -4.03783
H          1.38082       -2.85315       -3.26438
H          2.26300       -0.38458       -4.65452
H          4.63583       -0.45760       -5.29050
H          6.38399       -0.75312       -3.55368
H          5.74754       -1.01937       -1.18954
H          3.07235       -0.14328        0.39564
H          2.43553       -1.77344        0.00774
H          4.12589       -1.56498        0.42792
