39

C          0.91601       -0.11158       -0.12320
C          0.18099       -0.17024        0.99689
C         -1.34309       -0.10190        1.11371
C         -1.77403       -1.37436        1.86752
C         -1.72103        1.17998        1.90864
C         -1.20364        2.52596        1.35849
C         -1.69006        2.87225       -0.02156
C         -2.54728        3.85258       -0.36342
C         -2.98794        4.02941       -1.79026
C         -3.13557        4.81741        0.62521
O         -1.89622       -0.11192       -0.22580
C         -3.24014       -0.06157       -0.41916
O         -4.07336       -0.09433        0.47942
N         -3.58609        0.04668       -1.75637
C         -2.63163        0.10021       -2.84752
C         -4.99179        0.16595       -2.08321
H          0.46323       -0.00463       -1.10266
H          1.99966       -0.15852       -0.07724
H          0.71614       -0.26392        1.94181
H         -1.26478       -1.46676        2.83394
H         -2.84835       -1.39316        2.07090
H         -1.55323       -2.27121        1.27576
H         -2.80937        1.25711        2.01033
H         -1.33775        1.08158        2.93427
H         -1.49081        3.30625        2.07291
H         -0.10760        2.53309        1.34999
H         -1.28653        2.24455       -0.81400
H         -4.07493        3.91747       -1.86460
H         -2.71096        5.02254       -2.15673
H         -2.53494        3.29026       -2.45870
H         -3.73695        4.29207        1.37332
H         -2.34412        5.38355        1.12748
H         -3.78659        5.54534        0.12924
H         -2.80048       -0.76277       -3.49795
H         -2.79893        1.01932       -3.41681
H         -1.59628        0.08603       -2.50394
H         -5.52715       -0.70640       -1.69655
H         -5.39285        1.06656       -1.60728
H         -5.13503        0.23198       -3.16527
