22

N          2.37861       -0.10698        0.18825
C          0.99514       -0.01607       -0.00784
C          0.25824       -1.21006        0.03292
C         -1.14195       -1.19733       -0.01280
S         -1.99305       -2.74691       -0.00964
O         -1.71624       -3.40147       -1.26858
O         -1.73272       -3.39496        1.25604
O         -3.56663       -2.38878       -0.02055
C         -1.84596        0.00267       -0.05429
C         -1.13274        1.19881       -0.04755
C          0.27563        1.18902       -0.00815
S          1.05080        2.78290       -0.03837
O          0.61620        3.45341       -1.24512
O          0.87309        3.39319        1.26077
O          2.64199        2.54953       -0.20776
H          2.80605       -0.96489       -0.14981
H          2.90587        0.71935       -0.10437
H          0.77743       -2.16514        0.10266
H         -4.06633       -3.23164       -0.01149
H         -2.93252        0.02211       -0.08331
H         -1.67396        2.14420       -0.06992
H          3.08259        3.39107        0.03972
