26

O          0.77451       -0.17917        1.68594
S          2.11407       -0.01931        1.21258
O          2.18777        1.45149        0.52573
C          1.46077        1.74089       -0.66461
C          2.23255        1.16824       -1.86001
C          1.89245       -0.32427       -2.16999
C          1.34866       -1.18298       -1.04129
O          2.30187       -1.10773        0.02379
C          1.26919       -0.26025       -3.60954
Cl         1.02460       -1.86129       -4.28676
C          0.07686        0.69365       -3.74247
Cl        -1.28486        0.36758       -4.73895
C          0.51837        1.94144       -3.50969
Cl        -0.26092        3.40025       -3.92591
C          2.00510        1.83928       -3.25855
Cl         2.93914        3.31589       -3.45820
C          2.34086        0.68083       -4.28435
Cl         2.04651        1.06294       -6.02662
Cl         4.05588        0.11516       -4.23860
H          3.03249       -0.16774        2.19309
H          0.43651        1.35912       -0.57992
H          1.39058        2.83107       -0.72776
H          3.30198        1.21747       -1.61346
H          2.87013       -0.80625       -2.29364
H          0.34190       -0.93308       -0.70378
H          1.34457       -2.23482       -1.34860
