27

O          1.00940       -0.01535        0.44335
C          2.21113       -0.09102        0.23676
O          2.96689       -1.09347        0.73633
C          2.98417        0.89316       -0.60586
C          2.69321        0.72548       -2.09328
C          1.30189        1.17409       -2.56823
C          0.85830        2.59739       -2.19861
C          1.55793        3.78241       -2.82863
C          2.57157        3.68325       -3.78827
C          3.17797        4.82929       -4.31285
C          2.75688        6.09371       -3.91088
C          1.72694        6.21404       -2.98386
C          1.13673        5.06851       -2.44520
H          3.91200       -1.04778        0.49975
H          2.77429        1.90422       -0.24531
H          4.05777        0.74470       -0.43927
H          3.46520        1.26466       -2.64964
H          2.81305       -0.33134       -2.36625
H          1.24466        1.04532       -3.65647
H          0.56054        0.47971       -2.15248
H         -0.20189        2.67923       -2.47626
H          0.89448        2.71478       -1.10896
H          2.90874        2.72058       -4.15758
H          3.97623        4.73176       -5.04418
H          3.22363        6.98227       -4.32689
H          1.37975        7.19802       -2.68007
H          0.32995        5.18406       -1.72325
