18

O          1.53009       -1.07632        0.00055
C          2.39139       -0.21826       -0.07275
O          2.90172        0.45368        0.97876
C          3.10822        0.09191       -1.32032
C          4.11451       -0.79568       -1.72168
C          4.80633       -0.56908       -2.90938
C          4.47926        0.53086       -3.70442
C          3.45989        1.41405       -3.30232
N          3.13729        2.54904       -4.17252
O          3.87115        2.76462       -5.14587
O          2.14370        3.23028       -3.87399
C          2.77210        1.20790       -2.09561
O          1.79994        2.04155       -1.61230
H          3.55743        1.13406        0.73546
H          4.34951       -1.66653       -1.11117
H          5.59035       -1.25628       -3.22247
H          5.02323        0.68217       -4.63629
H          1.52487        2.69014       -2.29689
