18

O          1.11122        0.42931        0.05164
C          2.29276        0.15659        0.05966
O          3.34842        1.01342        0.06790
C          4.54355        0.36508        0.07602
O          5.65481        0.85037        0.08424
C          4.23139       -1.04752        0.07288
C          5.08149       -2.14382        0.07869
C          4.44690       -3.37746        0.07328
C          5.01288       -4.70883        0.07731
O          6.19430       -4.98205        0.08674
O          3.95696       -5.56540        0.06863
C          2.76205       -4.91675        0.05951
O          1.65059       -5.40158        0.05044
C          3.07465       -3.50432        0.06270
C          2.22458       -2.40809        0.05695
C          2.85915       -1.17453        0.06259
H          6.16203       -2.04387        0.08697
H          1.14405       -2.50804        0.04878
