23

C          1.13797        0.16104        0.18675
C          0.67279        1.16528       -0.85628
C          1.07424        0.79417       -2.28744
C          0.57470       -0.56419       -2.78371
N         -0.88336       -0.64449       -2.79779
P         -1.47669       -2.25509       -3.26928
N         -2.31617       -2.15150       -1.82321
N         -2.51492       -1.35412       -4.20050
S         -2.10916       -3.97193       -3.77187
H          0.63386       -0.80274        0.06855
H          0.91053        0.53075        1.19168
H          2.21833       -0.00179        0.12155
H         -0.41358        1.28845       -0.78473
H          1.11018        2.14276       -0.61939
H          0.71454        1.58005       -2.96399
H          2.16914        0.80519       -2.36047
H          0.94243       -0.71997       -3.80433
H          0.98963       -1.37076       -2.17006
H         -1.25170       -0.52143       -1.85754
H         -3.23803       -2.55226       -1.98571
H         -1.90908       -2.80489       -1.15832
H         -3.46493       -1.69394       -4.15487
H         -2.50677       -0.40101       -3.85682
