44

C          1.28137       -0.32183        0.34442
C          0.99091        0.37915       -0.97053
C          1.31578       -0.47299       -2.20272
C          0.40382       -1.68263       -2.42583
C         -1.09329       -1.36168       -2.58080
N         -1.39720       -0.65168       -3.82693
C         -1.62658       -1.44048       -4.95371
O         -1.52250       -2.66516       -4.97709
C         -2.12802       -0.69271       -6.15956
C         -1.33003        0.58460       -6.29540
C         -1.61340        1.50077       -5.10221
N         -0.68940        2.64579       -5.07365
C         -0.58174        3.54926       -6.10176
O         -1.23772        3.62430       -7.12259
C          0.54721        4.42801       -5.78929
C          1.12053        5.46575       -6.49673
C          2.24079        6.08922       -5.93015
C          2.75935        5.66471       -4.68928
C          2.16453        4.61056       -3.99522
C          1.05953        4.01822       -4.57780
C          0.26131        2.89202       -4.12710
O          0.49123        2.33247       -3.07464
C         -1.72830        0.70719       -3.77130
O         -2.13268        1.25629       -2.74488
H          0.71422       -1.25079        0.44263
H          1.00826        0.32903        1.18159
H          2.34799       -0.55084        0.43076
H         -0.05349        0.70543       -0.98276
H          1.59760        1.29225       -1.00411
H          1.28340        0.14584       -3.10364
H          2.35430       -0.81845       -2.12834
H          0.75814       -2.20857       -3.32178
H          0.53102       -2.38170       -1.59191
H         -1.63916       -2.31374       -2.58207
H         -1.46198       -0.80500       -1.71559
H         -1.99019       -1.31771       -7.04803
H         -3.20050       -0.49897       -6.04059
H         -0.25852        0.35530       -6.35559
H         -1.60453        1.08032       -7.23309
H         -2.61215        1.93140       -5.26298
H          0.72395        5.77859       -7.45676
H          2.72467        6.91140       -6.45481
H          3.63423        6.15980       -4.27090
H          2.55269        4.26060       -3.04336
