18

N          1.09962       -0.00050        0.00872
C          2.36058       -0.00050        0.00872
C          3.88058       -0.00050        0.00872
C          4.37869       -1.00116        1.04261
O          5.06334       -1.97652        0.73936
C          4.18453       -0.70466        2.48438
C          5.27559       -0.14667        3.16559
C          5.16813        0.17354        4.52141
C          3.96875       -0.04234        5.19726
C          2.89559       -0.63742        4.53416
C          3.01483       -1.01051        3.19016
Cl         1.72859       -1.94286        2.52346
H          4.24694       -0.29658       -0.97941
H          4.27117        0.99475        0.24052
H          6.22293        0.01065        2.65403
H          6.02327        0.58268        5.05552
H          3.87843        0.21864        6.24986
H          1.97578       -0.83739        5.08115
