56

C          1.56802       -0.05899        0.54868
C          0.96689        1.32279        0.75220
C          1.22781        2.26815       -0.42408
C          0.53533        1.85965       -1.72414
O         -0.88002        1.97751       -1.54542
C         -1.61154        0.86712       -1.30460
O         -1.19997       -0.28243       -1.38905
C         -3.03500        1.21428       -0.92649
C         -3.25090        2.62128       -0.34943
C         -3.00304        3.80512       -1.29997
C         -3.61284        3.64788       -2.69393
C         -5.13957        3.62111       -2.67151
C         -5.74937        4.96586       -2.27213
C         -5.50151        6.10936       -3.27083
C         -5.71741        5.78812       -4.75725
C         -7.14088        5.47679       -5.16537
O         -7.55244        5.59534       -6.31189
O         -7.87239        5.04487       -4.11446
C         -9.28775        4.88960       -4.26184
C         -9.98022        6.09783       -3.63158
C         -9.71930        7.42173       -4.35589
C        -10.32043        7.46381       -5.75195
H          1.20763       -0.53595       -0.36594
H          1.30363       -0.71127        1.38639
H          2.65909       -0.00005        0.49202
H         -0.10825        1.23444        0.94242
H          1.40087        1.76146        1.65845
H          0.86199        3.26203       -0.13321
H          2.30592        2.35666       -0.59556
H          0.80766        2.57285       -2.51023
H          0.83119        0.86786       -2.07646
H         -3.67716        1.03386       -1.79344
H         -3.33132        0.49775       -0.14985
H         -4.28515        2.68035        0.01294
H         -2.61465        2.75309        0.53459
H         -3.37401        4.71677       -0.81914
H         -1.93045        3.98974       -1.41065
H         -3.25851        4.46605       -3.33075
H         -3.24165        2.73396       -3.17068
H         -5.51076        3.31210       -3.65490
H         -5.49390        2.85062       -1.97777
H         -6.82197        4.82450       -2.10979
H         -5.37841        5.27927       -1.29026
H         -6.13776        6.95654       -2.98596
H         -4.46726        6.45575       -3.14909
H         -5.42109        6.67843       -5.32640
H         -5.07525        4.96627       -5.08698
H         -9.58360        4.71677       -5.30007
H         -9.56008        3.99058       -3.69763
H        -11.05833        5.91348       -3.57452
H         -9.61441        6.20981       -2.60208
H        -10.15329        8.23695       -3.76501
H         -8.64416        7.62449       -4.40949
H        -11.41150        7.39768       -5.70386
H        -10.05604        8.40297       -6.24712
H         -9.96004        6.64706       -6.38197
