29

C          1.51855       -0.24038       -0.27619
C          0.76323        0.49879        0.55439
C         -0.73138        0.53920        0.41558
C          1.37398        1.37548        1.62187
O          1.80173        0.66331        2.77900
C          0.81303       -0.05611        3.51167
C         -0.03456        0.79289        4.46975
C         -1.06946        1.65363        3.79866
C         -2.36215        1.32575        3.64280
C         -3.34801        2.20071        2.91934
C         -4.16151        1.41590        1.89944
H          1.07416       -0.85554       -1.05202
H          2.60002       -0.25826       -0.18419
H         -1.21094        0.01797        1.24725
H         -1.08831        1.57433        0.39618
H         -1.07331        0.06068       -0.50800
H          2.27147        1.85350        1.20918
H          0.71951        2.20703        1.89022
H          0.19759       -0.67905        2.85691
H          1.38138       -0.75934        4.13279
H         -0.53569        0.11571        5.17335
H          0.61736        1.44263        5.06520
H         -0.72050        2.61680        3.43402
H         -2.73181        0.37888        4.03113
H         -4.02654        2.65482        3.64915
H         -2.83073        3.01781        2.40180
H         -4.79030        0.66613        2.39097
H         -4.81660        2.09064        1.33898
H         -3.51966        0.89898        1.17984
