60

C          1.33438       -0.33615       -1.93639
C          0.92568        1.08601       -2.34801
C          1.01270        1.24638       -3.86533
O         -0.40138        1.45731       -1.91676
N         -1.26501        0.35984       -1.98105
C         -2.52599        0.68363       -1.96714
C         -3.00918        2.11592       -1.86334
O         -3.60192        2.60396       -2.82130
N         -2.86436        2.86824       -0.72203
C         -2.18105        2.64533        0.56845
C         -1.55803        1.32801        1.02924
O         -1.99604        0.34790        1.59539
N         -0.27286        1.83669        0.98856
C          0.57150        1.61108        2.05578
C          1.46729        0.42697        1.94894
O          1.13513       -0.71694        1.70741
O          2.72805        0.75476        2.27756
C          0.40082        2.24070        3.23999
C          0.91879        1.69537        4.55546
N         -0.19106        0.91352        5.18435
C         -0.39741       -0.37437        4.80745
C         -1.51733       -1.06924        5.24143
C         -2.42396       -0.44428        6.08379
C         -2.17825        0.85664        6.50155
C         -1.04274        1.51623        6.04805
C         -0.48461        3.44456        3.37751
S         -0.49383        4.47215        1.91118
C         -0.73416        3.19310        0.65076
C         -3.49040       -0.39931       -2.18483
C         -4.84259       -0.22583       -2.41777
S         -5.59041       -1.73122       -2.75207
C         -4.08122       -2.51626       -2.55477
N         -3.95061       -3.83996       -2.73359
N         -3.07967       -1.73351       -2.24884
C          1.85513        2.08573       -1.65308
O          2.62543        1.85371       -0.73126
O          1.71665        3.35711       -2.08740
H          0.77565       -1.09454       -2.49608
H          1.12786       -0.51199       -0.87724
H          2.40097       -0.51414       -2.11035
H          0.37224        0.51650       -4.37252
H          0.66073        2.23495       -4.18154
H          2.03941        1.11803       -4.22314
H         -3.29578        3.77877       -0.86818
H         -2.85115        3.01608        1.35700
H          3.27040       -0.01535        1.99520
H          1.77955        1.02592        4.48429
H          1.20447        2.50264        5.23824
H          0.32103       -0.83597        4.13782
H         -1.69030       -2.08855        4.90036
H         -3.31991       -0.96961        6.40935
H         -2.88079        1.35748        7.16388
H         -0.82932        2.54085        6.33917
H         -0.11290        4.08352        4.17660
H         -1.49667        3.14242        3.64326
H         -0.33438        3.51177       -0.31678
H         -5.41850        0.68779       -2.45908
H         -4.63312       -4.30204       -3.32204
H         -3.00137       -4.16259       -2.88004
H          2.38179        3.87359       -1.58569
