10

O          1.04991        0.10555        0.05526
C          0.55027        0.14347       -1.28079
C          1.08057        1.37960       -1.99456
O          2.50727        1.37731       -1.96907
H          1.97087       -0.20498       -0.01213
H          0.87194       -0.77275       -1.78655
H         -0.54251        0.15994       -1.24230
H          0.75213        1.39280       -3.03758
H          0.73666        2.29629       -1.50451
H          2.75938        1.66335       -1.07255
