62

C          0.18031       -0.89099        0.91395
C         -0.70964        0.32642        0.68123
C         -0.45919        0.94960       -0.68793
C         -1.20232        0.30153       -1.85808
C         -2.36606        1.09742       -2.47174
C         -2.23355        2.58362       -2.85313
C         -1.27256        3.11216       -3.94513
N         -1.21030        2.42861       -5.23191
C         -1.24093        3.28950       -6.42183
C          0.05180        3.97107       -6.85715
C         -0.32546        1.27126       -5.32313
C          1.22523        1.37175       -5.33209
C          1.97050        2.36395       -4.39670
C          1.95585        1.89035       -2.94324
O          2.77726        0.72305       -2.85165
C          2.23629        2.82432       -1.76640
C          2.84697        2.30514       -0.60798
C          2.74336        2.94190        0.63626
C          2.00585        4.11170        0.76677
N          1.81603        4.80531        2.00346
S          1.90406        4.07279        3.51439
C          3.60651        4.37373        3.93567
O          1.09748        4.89323        4.39150
O          1.67909        2.64656        3.41682
C          1.52252        4.71735       -0.39813
C          1.63235        4.08335       -1.65037
H         -0.00628       -1.67239        0.17143
H          0.00320       -1.30785        1.90945
H          1.24086       -0.61654        0.85550
H         -1.76425        0.06547        0.80497
H         -0.46099        1.07023        1.44799
H         -0.64343        2.02532       -0.64667
H          0.60798        0.81628       -0.86959
H         -0.47719        0.06629       -2.63824
H         -1.58714       -0.68000       -1.55412
H         -2.73257        0.54772       -3.34702
H         -3.18184        1.04756       -1.73685
H         -3.24252        2.90362       -3.15065
H         -2.02232        3.15587       -1.94028
H         -1.60352        4.14754       -4.11688
H         -0.28863        3.23157       -3.51390
H         -1.60379        2.69123       -7.26788
H         -2.00511        4.06677       -6.29154
H          0.79680        3.25394       -7.20484
H         -0.14306        4.63098       -7.70961
H          0.48224        4.58049       -6.05920
H         -0.62099        0.55633       -4.55781
H         -0.59848        0.73879       -6.24679
H          1.59216        0.35755       -5.12007
H          1.55477        1.55841       -6.35815
H          3.01278        2.40849       -4.73632
H          1.56968        3.37133       -4.51124
H          0.93676        1.56589       -2.76554
H          2.18710       -0.04318       -2.95097
H          3.33158        1.32991       -0.63641
H          3.18872        2.44292        1.49035
H          1.11607        5.54837        2.01003
H          3.77479        5.45238        3.95890
H          3.79282        3.94839        4.92411
H          4.25194        3.89372        3.19932
H          1.00046        5.66983       -0.34175
H          1.16290        4.56124       -2.50549
