37

C          0.93596        0.03369       -0.30948
C          0.23974       -0.20021        1.02351
C          0.82919        0.67576        2.15356
C          0.36516        2.15053        2.02338
C         -1.14062        2.38367        2.06890
C          0.49476        0.09692        3.55140
C          1.39542       -1.07744        4.11109
C          2.20396       -0.51861        5.23386
N          2.83971       -0.09124        6.10650
C          2.38453       -1.70751        3.09477
C          3.08743       -2.96854        3.60601
C          2.07662       -4.01084        4.06293
C          1.16194       -3.44773        5.14166
C          0.45137       -2.17351        4.67888
H          0.72815        1.03435       -0.69822
H          0.58630       -0.69361       -1.04878
H          2.02033       -0.08305       -0.21150
H         -0.83459       -0.03043        0.90583
H          0.31422       -1.26216        1.26428
H          1.92073        0.70638        2.05618
H          0.82905        2.74064        2.82385
H          0.75049        2.56733        1.08519
H         -1.57682        2.02112        3.00373
H         -1.35189        3.45567        1.99356
H         -1.65558        1.90150        1.23352
H          0.51864        0.92343        4.27703
H         -0.55710       -0.21951        3.53829
H          1.86228       -2.00996        2.18703
H          3.15293       -0.98345        2.79738
H          3.76848       -2.72013        4.42790
H          3.70402       -3.38771        2.80204
H          2.60075       -4.89461        4.44277
H          1.47506       -4.34032        3.20623
H          1.74452       -3.24416        6.04780
H          0.41283       -4.20087        5.41274
H         -0.13369       -1.77507        5.51876
H         -0.27128       -2.45810        3.90210
