126

C          0.99254       -0.03857        0.26862
C          0.39034       -0.85760       -0.89774
C          0.76979       -2.33409       -0.59845
C         -1.14801       -0.76797       -0.85765
C          0.88818       -0.36366       -2.27956
C          1.34788       -1.28865       -3.23046
C          1.83128       -0.90199       -4.48467
C          2.31689       -1.95328       -5.46569
N          3.61964       -2.50349       -5.10720
C          4.74610       -1.95951       -5.68594
O          4.70639       -0.90376       -6.32126
N          5.91004       -2.66659       -5.48483
C          7.09662       -2.32418       -6.27494
C          7.06821       -2.94673       -7.66618
C          6.17541       -2.46803       -8.62908
C          6.06685       -3.01240       -9.92422
C          4.98364       -2.41233      -10.85434
C          3.59328       -2.68476      -10.23010
C          5.18990       -0.88138      -10.97999
C          4.93161       -2.95081      -12.30030
C          6.95188       -4.06227      -10.24083
O          6.83577       -4.65712      -11.46017
C          7.92994       -4.54739       -9.34073
C          8.98666       -5.63433       -9.68348
C         10.40642       -5.09516       -9.37469
C          8.72606       -6.88239       -8.81717
C          9.04090       -6.12701      -11.14903
C          7.93443       -3.98420       -8.03716
C          6.08559       -3.24400       -4.24914
O          7.17616       -3.24166       -3.67706
N          4.94670       -3.77688       -3.67650
C          5.04901       -4.54144       -2.43484
C          5.45142       -5.98635       -2.64152
C          6.76470       -6.29810       -2.99458
C          7.20755       -7.61296       -3.22913
C          8.66979       -7.78181       -3.70599
C          8.83626       -7.00585       -5.03364
C          9.63978       -7.19202       -2.65454
C          9.15104       -9.22049       -3.98636
C          6.26244       -8.64001       -3.03068
O          6.65230       -9.92234       -3.27092
C          4.93117       -8.39502       -2.61455
C          3.87644       -9.48489       -2.28500
C          3.48035       -9.36131       -0.79295
C          2.61781       -9.27668       -3.16019
C          4.30243      -10.95695       -2.49015
C          4.55145       -7.03907       -2.45536
C          3.69178       -3.53987       -4.19757
O          2.70158       -4.18027       -3.84149
C          1.82917        0.45913       -4.81181
C          1.32438        1.44845       -3.93380
C          1.27152        2.91246       -4.44532
C          2.69880        3.38433       -4.81153
C          0.37958        2.97457       -5.71010
C          0.70340        3.97611       -3.47738
C          0.87186        0.99668       -2.67292
O          0.37471        1.89432       -1.77360
H          0.80084       -0.52252        1.23399
H          0.56171        0.96234        0.35484
H          2.07817        0.06583        0.15983
H          0.46046       -2.62791        0.41184
H          0.27717       -3.03328       -1.28376
H          1.85352       -2.48950       -0.66569
H         -1.50587        0.25975       -0.97816
H         -1.59854       -1.36620       -1.65894
H         -1.54036       -1.14059        0.09560
H          1.32159       -2.35200       -3.01412
H          1.57607       -2.76084       -5.51408
H          2.36153       -1.52628       -6.47560
H          7.17514       -1.23432       -6.37054
H          8.00885       -2.65539       -5.76545
H          5.53281       -1.63468       -8.36010
H          3.47816       -2.22034       -9.24431
H          2.78991       -2.29101      -10.86326
H          3.42383       -3.76119      -10.10561
H          6.19276       -0.65171      -11.35898
H          4.46176       -0.43852      -11.66963
H          5.06900       -0.35613      -10.02699
H          5.88423       -2.80431      -12.82130
H          4.66535       -4.01265      -12.33225
H          4.16580       -2.42776      -12.88675
H          6.18055       -5.36582      -11.33642
H         10.54926       -4.86211       -8.31467
H         11.17593       -5.83155       -9.63706
H         10.61134       -4.18251       -9.94668
H          7.70850       -7.26328       -8.96239
H          9.42461       -7.69219       -9.05936
H          8.85145       -6.66214       -7.75633
H          8.12891       -6.66218      -11.43540
H          9.20845       -5.30134      -11.84947
H          9.86399       -6.83813      -11.29621
H          8.64224       -4.35170       -7.29553
H          5.78610       -4.06230       -1.77799
H          4.09622       -4.49642       -1.89224
H          7.47391       -5.48063       -3.09356
H          8.68999       -5.92612       -4.91819
H          9.83836       -7.14297       -5.45568
H          8.10530       -7.35725       -5.77114
H          9.52023       -7.69289       -1.68702
H         10.68333       -7.31229       -2.96867
H          9.48650       -6.12000       -2.49111
H          9.10296       -9.84667       -3.08914
H          8.57166       -9.69436       -4.78637
H         10.19691       -9.22618       -4.31854
H          6.36947      -10.10569       -4.18364
H          3.02452       -8.39355       -0.55874
H          2.75246      -10.13137       -0.51045
H          4.35658       -9.47898       -0.14389
H          2.87289       -9.30445       -4.22603
H          1.87334      -10.06050       -2.97527
H          2.12122       -8.32112       -2.96297
H          4.53960      -11.16969       -3.53811
H          5.16220      -11.22421       -1.86563
H          3.49325      -11.64414       -2.21204
H          3.53350       -6.79300       -2.15529
H          2.20667        0.74777       -5.79243
H          3.14064        2.79652       -5.62270
H          2.69684        4.42926       -5.14479
H          3.36919        3.31243       -3.94695
H         -0.63437        2.61824       -5.49195
H          0.29658        4.00111       -6.08717
H          0.77310        2.36808       -6.53239
H         -0.32757        3.75169       -3.18252
H          1.32008        4.08142       -2.57870
H          0.68159        4.96676       -3.94950
H          1.15378        2.35136       -1.41270
