18

C          2.51193        0.03338       -0.01369
C          1.01245        0.01619       -0.01512
C          0.32686       -1.20178       -0.06986
C         -1.07165       -1.23034       -0.06980
C         -1.81241       -0.04496       -0.03871
N         -3.22456       -0.04519        0.03290
O         -3.92649       -1.20923       -0.28067
C         -1.12157        1.16929        0.05311
C          0.27686        1.20264        0.05421
H          2.89386       -0.47204        0.87902
H          2.89597       -0.47163       -0.90595
H          2.90193        1.05654       -0.01571
H          0.87665       -2.13932       -0.11062
H         -1.57604       -2.19135       -0.11013
H         -3.61422        0.77485       -0.43515
H         -3.91862       -1.69845        0.56389
H         -1.66889        2.10533        0.12743
H          0.78343        2.16296        0.11574
