34

C          1.06549       -0.26270        0.30941
C          0.58575        0.14375        1.69568
C          1.01645        1.55483        2.10854
C          0.59836        2.67584        1.14734
C         -0.91806        2.81396        0.89507
C         -1.70265        3.10572        2.19829
C         -1.35217        4.42165        2.88531
C         -1.25607        3.88122       -0.16968
O         -0.95556        3.49964       -1.50987
C          0.33107        3.82893       -2.04013
C          0.76342        5.28617       -1.86798
O          1.31228        5.50128       -0.56701
H          0.57573        0.32479       -0.47324
H          0.83164       -1.31582        0.12356
H          2.14804       -0.13311        0.21279
H         -0.50440        0.04921        1.74573
H          0.99128       -0.56655        2.42620
H          0.63949        1.76329        3.11589
H          2.11104        1.57259        2.19086
H          1.00077        3.62355        1.52338
H          1.11854        2.49204        0.20872
H         -1.27909        1.85570        0.50116
H         -2.77637        3.11297        1.97159
H         -1.55847        2.28676        2.91148
H         -1.55671        5.28116        2.24018
H         -1.95626        4.54195        3.79054
H         -0.30123        4.45628        3.18542
H         -2.34561        4.01156       -0.16746
H         -0.85402        4.86319        0.08284
H          1.08300        3.14032       -1.65309
H          0.25567        3.62548       -3.11413
H          1.54891        5.53161       -2.58850
H         -0.08452        5.96365       -2.00813
H          1.25255        6.45181       -0.38482
