32

O          1.11936       -0.06519       -0.20604
N          2.30887        0.26677       -0.12119
O          2.95103        0.88129       -0.98164
C          3.01721       -0.11223        1.09359
C          2.82714       -1.39448        1.60873
C          3.55610       -1.78706        2.73192
C          4.39861       -0.89120        3.39917
N          5.18574       -1.35283        4.52111
S          4.44376       -1.73704        6.00951
O          5.38445       -2.56827        6.73262
O          3.96342       -0.49796        6.57616
C          3.02963       -2.74296        5.62732
C          1.79061       -2.12839        5.45041
C          0.70804       -2.89189        5.01889
C          0.84254       -4.27175        4.80112
Cl        -0.55332       -5.08111        4.19300
C          2.06290       -4.91642        5.04920
C          2.29316       -6.39983        4.87995
F          3.35169       -6.64492        4.05364
F          2.60809       -6.99885        6.06257
F          1.26438       -7.11993        4.36596
C          3.16047       -4.13001        5.47749
C          4.58075        0.39474        2.85356
Cl         5.69505        1.50568        3.56540
C          3.90379        0.78699        1.69213
H          2.15574       -2.10348        1.12705
H          3.48068       -2.82189        3.04686
H          5.87740       -0.63234        4.76724
H          1.67121       -1.05666        5.59844
H         -0.24433       -2.39730        4.83276
H          4.12615       -4.60681        5.65977
H          4.07661        1.76862        1.25514
