19

N          1.16963       -0.35105       -0.04601
N          0.63911       -0.27268       -1.39405
C         -0.82747       -0.10176       -1.36709
C         -1.28328        1.24980       -0.86218
C         -1.02209        2.41690       -1.59768
C         -1.43796        3.66206       -1.12238
C         -2.12587        3.75492        0.08511
C         -2.39856        2.60299        0.82128
C         -1.97735        1.35775        0.35112
H          0.82210       -1.18299        0.43840
H          2.18744       -0.46038       -0.06374
H          1.03283        0.53084       -1.89318
H         -1.20496       -0.22656       -2.38972
H         -1.28868       -0.91129       -0.78623
H         -0.48825        2.36168       -2.54255
H         -1.22125        4.56069       -1.69440
H         -2.44693        4.72460        0.45573
H         -2.93316        2.67426        1.76416
H         -2.18733        0.46930        0.94263
