33

C          0.27928        0.83993       -0.20572
C         -0.03105        0.14937       -1.49908
C         -0.21099       -1.21328       -1.53129
C         -0.25392       -1.78712       -2.77671
N         -0.36621       -3.18936       -2.96869
S          0.98573       -4.16615       -2.63472
O          0.51904       -5.53778       -2.71752
O          2.08707       -3.71984       -3.45599
C          1.41324       -3.85580       -0.93657
C          2.25987       -2.78523       -0.63210
C          2.42511       -2.39954        0.69985
C          1.84960       -3.14051        1.73626
N          1.82717       -2.62112        3.03497
C          1.07700       -4.26353        1.41596
C          0.86577       -4.63536        0.08369
N         -0.30104       -1.09287       -3.91901
C         -0.22390        0.24593       -3.78691
C         -0.43675        1.08854       -5.00666
N         -0.03902        0.89299       -2.61989
H         -0.28977        0.40355        0.62071
H          0.03669        1.90488       -0.26481
H          1.34845        0.74052        0.01157
H         -0.28521       -1.78946       -0.62130
H         -0.56860       -3.32150       -3.96210
H          2.70514       -2.18648       -1.42459
H          2.98008       -1.49050        0.91878
H          2.58981       -1.98651        3.24970
H          1.68792       -3.31673        3.76151
H          0.60275       -4.84132        2.20635
H          0.24355       -5.49908       -0.14158
H          0.30732        0.85381       -5.77167
H         -1.43758        0.90323       -5.40934
H         -0.36335        2.15402       -4.76320
