16

C          1.19146        0.05066        0.13033
C          0.52643        0.65829        1.37121
C          1.03309        2.08432        1.51306
N          1.45341        3.26734        1.63073
C         -0.98817        0.64958        1.31510
C         -1.50024       -0.76775        1.22937
C         -0.99357       -1.60361        2.39343
N         -0.57326       -2.29702        3.35911
H          0.82719        0.52532       -0.78801
H          1.00695       -1.02501        0.05679
H          2.27877        0.18861        0.16167
H          0.89328        0.12517        2.25639
H         -1.39480        1.13858        2.21064
H         -1.35200        1.22559        0.45496
H         -2.59607       -0.76082        1.26441
H         -1.22258       -1.24905        0.28611
