32

C          2.45247       -0.63154       -0.03231
C          2.37890        0.75607        0.00996
C          1.13115        1.38679        0.03725
C         -0.05403        0.66375        0.02250
N         -1.22721        1.31830        0.05596
C         -2.38042        0.60005        0.02677
C         -3.63506        1.36824        0.07937
C         -4.52666        1.22698        1.13933
C         -5.70901        1.95985        1.12628
C         -5.97815        2.82108        0.05776
C         -7.15816        3.58395        0.00193
C         -7.39449        4.43610       -1.07476
C         -6.45520        4.52941       -2.09539
C         -5.28418        3.76743       -2.03593
C         -5.02353        2.90894       -0.97634
N         -3.88545        2.19437       -0.97013
C         -2.38482       -0.79142       -0.02060
C         -1.16940       -1.46770       -0.04495
C          0.02670       -0.74327       -0.02402
C          1.27899       -1.38249       -0.04989
H          3.41947       -1.12731       -0.05376
H          3.28693        1.35325        0.02065
H          1.07979        2.47274        0.06819
H         -4.30189        0.56676        1.97069
H         -6.40923        1.86000        1.95118
H         -7.89654        3.51827        0.79751
H         -8.30646        5.02599       -1.11551
H         -6.62621        5.19298       -2.93901
H         -4.55199        3.84612       -2.83630
H         -3.31842       -1.34372       -0.05089
H         -1.16229       -2.55350       -0.08655
H          1.34480       -2.46732       -0.08539
