22

O          1.09764       -0.11662        0.22636
C          2.29885        0.04656        0.11360
O          3.10041       -0.75035       -0.62444
C          3.04438        1.10960        0.82264
C          2.71730        1.37910        2.15212
C          3.40678        2.37394        2.84689
C          4.41870        3.11730        2.21769
C          5.11805        4.12023        2.90501
C          6.10824        4.85406        2.26015
O          6.75229        5.81711        2.97913
C          6.42424        4.61195        0.92947
C          5.73711        3.61581        0.23208
C          4.73460        2.85820        0.86133
C          4.03660        1.85381        0.17180
H          4.05487       -0.61400       -0.47459
H          1.92767        0.81794        2.64845
H          3.14357        2.57055        3.88470
H          4.89421        4.34023        3.94609
H          7.39659        6.26052        2.40321
H          7.19421        5.18302        0.42023
H          5.99121        3.43752       -0.81081
H          4.24798        1.67308       -0.88005
