19

O          1.06412       -0.19175        0.09354
C          2.28018       -0.12034        0.05639
O          3.04274       -0.91884       -0.71657
C          3.09112        0.84162        0.82894
C          2.47666        1.69847        1.65957
C          3.17387        2.71670        2.45667
C          2.68530        3.03219        3.73122
C          3.28645        4.03553        4.49585
C          4.37632        4.74024        3.98974
C          4.86548        4.44289        2.71984
C          4.26475        3.43956        1.95492
H          4.00328       -0.77368       -0.65361
H          4.16517        0.83704        0.71010
H          1.39405        1.66449        1.78039
H          1.83018        2.49928        4.14220
H          2.89759        4.27156        5.48318
H          4.83770        5.52740        4.58054
H          5.70691        5.00140        2.31784
H          4.64732        3.24994        0.95563
