18

N          0.67271       -0.21206        0.20104
C          0.20833       -0.86006       -0.88545
O         -1.00009       -0.98136       -1.06096
N          1.09830       -1.30599       -1.80487
C          2.49276       -1.48470       -1.76457
C          3.25212       -1.48536       -0.59135
C          4.63648       -1.68645       -0.64061
C          5.26425       -1.89882       -1.86508
Br         7.13297       -2.17055       -1.92872
C          4.51924       -1.92509       -3.04016
C          3.13615       -1.72733       -2.98611
H         -0.06780        0.19914        0.75538
H          1.45468        0.40619        0.03652
H          0.62978       -1.58785       -2.65779
H          2.79265       -1.38299        0.38662
H          5.20830       -1.69115        0.28408
H          4.99950       -2.09991       -3.99949
H          2.57080       -1.75002       -3.91513
