23

N          0.56604       -1.32632        0.53205
C          0.15170       -1.63302       -0.71847
O         -1.03297       -1.58657       -1.02195
N          1.11528       -2.01972       -1.59691
C          1.95993       -1.08398       -2.14562
O          1.94614       -0.91039       -3.36553
C          2.92236       -0.34775       -1.23097
C          2.76982        1.15571       -1.22675
C          3.91382        1.96796       -1.27196
C          3.80441        3.35916       -1.22257
C          2.55128        3.95696       -1.11790
C          1.40816        3.16389       -1.05980
C          1.51591        1.77206       -1.10776
H         -0.19196       -1.15239        1.18249
H          1.33065       -1.86339        0.91700
H          0.61459       -2.39537       -2.39688
H          2.87853       -0.71807       -0.20436
H          3.92465       -0.61552       -1.59240
H          4.90355        1.52302       -1.35034
H          4.69817        3.97597       -1.26668
H          2.46479        5.03952       -1.08233
H          0.42842        3.62789       -0.97823
H          0.60302        1.18402       -1.05638
