33

C          1.25318        0.00985        0.47532
C          0.93930        1.17355       -0.45113
C          1.20139        0.86205       -1.92768
C          0.30109       -0.22452       -2.52393
C         -1.19264        0.09459       -2.49878
O         -1.53761        1.06061       -3.50296
C         -1.62463        2.36783       -3.16122
O         -1.36795        2.82916       -2.06032
C         -2.16420        3.18785       -4.30654
C         -1.24645        3.23534       -5.51919
O         -1.59004        2.32356       -6.56329
C         -1.15951        0.97133       -6.44007
C          0.33766        0.81116       -6.23363
H          0.65526       -0.87385        0.23534
H          1.03116        0.28658        1.51078
H          2.31183       -0.26002        0.41496
H         -0.09871        1.47995       -0.29457
H          1.55742        2.03074       -0.16004
H          1.09780        1.78306       -2.51269
H          2.24673        0.54902       -2.04352
H          0.61420       -0.38786       -3.56159
H          0.47402       -1.17011       -1.99932
H         -1.73854       -0.81565       -2.77305
H         -1.56133        0.38658       -1.51158
H         -3.17188        2.84019       -4.55168
H         -2.25609        4.20948       -3.91306
H         -1.38290        4.22180       -5.97902
H         -0.18676        3.17812       -5.25780
H         -1.73902        0.45463       -5.67368
H         -1.42648        0.47563       -7.37998
H          0.67083        1.24898       -5.28887
H          0.61459       -0.24716       -6.22184
H          0.89100        1.31387       -7.03240
