29

C          1.23103        0.07606       -0.28349
C          0.74621       -1.34113       -0.54934
C          1.13757       -2.33533        0.54723
C          0.56907       -2.03564        1.94159
C         -0.97115       -2.01036        2.04123
C         -1.57113       -3.38172        1.70367
C         -1.44532       -1.59295        3.45206
C         -1.06702       -0.17465        3.89425
C         -1.62655        0.91579        2.99392
H          0.76201        0.50306        0.60668
H          0.98322        0.72381       -1.13040
H          2.31675        0.09957       -0.14571
H         -0.33926       -1.33688       -0.69504
H          1.18213       -1.68291       -1.49578
H          0.84000       -3.34235        0.23409
H          2.23242       -2.35915        0.62346
H          0.95793       -2.79166        2.63613
H          0.98405       -1.08072        2.27884
H         -1.37291       -1.29267        1.31927
H         -1.17445       -4.16145        2.36250
H         -2.66085       -3.36774        1.81641
H         -1.35989       -3.66760        0.66903
H         -2.53891       -1.68121        3.50053
H         -1.04860       -2.30118        4.19065
H         -1.45699       -0.01819        4.90755
H          0.02012       -0.06848        3.96814
H         -2.71363        0.82886        2.90029
H         -1.40028        1.90158        3.41261
H         -1.18977        0.87616        1.99266
