74

C          1.16523       -0.36725       -0.09028
C          0.89486        0.11593        1.32646
C          1.32806        1.56601        1.55887
C          0.62290        2.59684        0.67053
C         -0.90361        2.60846        0.80437
C         -1.41017        3.00588        2.19586
C         -1.03009        4.42776        2.62364
C         -1.53091        5.51885        1.67391
C         -3.05790        5.63301        1.61841
C         -3.70206        6.19819        2.88718
C         -3.17636        7.56631        3.31735
C         -3.43302        8.63676        2.28447
O         -4.41877        9.36440        2.30336
O         -2.43415        8.65905        1.34928
O         -2.84473        9.59048        0.29506
C         -2.93876        8.87407       -0.86715
O         -2.60634        7.70483       -1.02175
C         -3.53183        9.71713       -1.96991
C         -5.05918        9.69758       -1.96621
C         -5.70521       10.26150       -0.69783
C         -5.28373       11.69265       -0.34859
C         -5.83704       12.74825       -1.30922
C         -7.36363       12.88140       -1.27750
C         -7.93834       13.23276        0.09983
C         -7.47704       14.58795        0.64659
C         -7.92496       15.79266       -0.18831
C         -9.44055       15.92553       -0.36072
C        -10.17826       16.09283        0.95894
H          0.58819        0.19839       -0.82788
H          0.88401       -1.41992       -0.19011
H          2.22738       -0.27284       -0.33701
H         -0.16806       -0.00972        1.55988
H          1.43911       -0.52750        2.02744
H          1.16727        1.81724        2.61387
H          2.40941        1.64605        1.39306
H          1.02629        3.59059        0.89726
H          0.88215        2.41456       -0.37860
H         -1.31740        3.28482        0.04814
H         -1.30889        1.62320        0.55000
H         -2.50002        2.89439        2.21614
H         -1.03396        2.30083        2.94536
H         -1.41495        4.60957        3.63362
H          0.05985        4.50757        2.70700
H         -1.08233        6.47124        1.97258
H         -1.15217        5.34178        0.66162
H         -3.33937        6.26537        0.77373
H         -3.50582        4.65903        1.39422
H         -4.78405        6.26597        2.71665
H         -3.56614        5.48948        3.71225
H         -3.68787        7.87279        4.23836
H         -2.11209        7.54633        3.57154
H         -3.12469       10.73167       -1.91845
H         -3.17104        9.30878       -2.92223
H         -5.42405       10.25154       -2.83884
H         -5.40597        8.66406       -2.09248
H         -6.79436       10.19654       -0.79293
H         -5.46308        9.60254        0.13868
H         -5.59742       11.91367        0.67722
H         -4.19317       11.78057       -0.32754
H         -5.37872       13.71493       -1.07097
H         -5.52175       12.51942       -2.33365
H         -7.66605       13.63633       -2.01167
H         -7.82177       11.94659       -1.61934
H         -9.03180       13.20500        0.04287
H         -7.67617       12.45391        0.82456
H         -7.84548       14.69644        1.67304
H         -6.38421       14.60552        0.73066
H         -7.53830       16.70486        0.28244
H         -7.45994       15.74705       -1.18012
H         -9.64485       16.79873       -0.99108
H         -9.84344       15.06043       -0.89862
H         -9.80746       16.96696        1.50333
H        -11.24832       16.23215        0.77808
H        -10.06514       15.21362        1.60018
