17

O          0.99303        0.04605        0.09505
C          2.21182        0.06146        0.09658
C          2.99883       -1.23366        0.09633
N          4.29634       -1.28689        0.09819
C          4.96166       -0.07299        0.10034
C          6.46753       -0.05654        0.10260
O          7.14607       -1.07991        0.10279
N          7.06184        1.17779        0.10446
C          6.40709        2.37162        0.10432
O          6.99487        3.44690        0.10579
N          5.04460        2.30015        0.10239
C          4.35037        1.12988        0.10048
N          2.98531        1.19634        0.09861
H          2.38824       -2.14991        0.09441
H          8.07010        1.19941        0.10589
H          4.56466        3.18994        0.10229
H          2.49837        2.08112        0.09879
