22

C          0.97220       -0.03721       -0.02052
O          0.49485       -0.08534        1.32460
C          0.88485       -1.21886        1.99730
C          2.20201       -1.67273        2.02615
C          2.51506       -2.82264        2.75476
C          3.86478       -3.30412        2.78657
N          4.96082       -3.68442        2.79927
C          1.51075       -3.50102        3.45499
C          0.18721       -3.03914        3.45373
O         -0.65032       -3.82258        4.19836
C         -2.02778       -3.47786        4.24344
C         -0.11353       -1.88272        2.72986
O         -1.37685       -1.35278        2.69317
H          0.47290        0.79839       -0.52019
H          0.71716       -0.95542       -0.56134
H          2.04922        0.15084       -0.05835
H          2.98994       -1.13183        1.50973
H          1.75305       -4.40005        4.02099
H         -2.17810       -2.51069        4.73299
H         -2.48064       -3.51124        3.24747
H         -2.53533       -4.23151        4.85399
H         -1.30145       -0.52498        2.17916
