29

C          1.05620        0.02746       -0.03377
C          0.51183       -1.35467       -0.38002
C          0.92773       -2.46818        0.61909
C          0.57075       -2.10702        2.08731
C         -0.89192       -1.83259        2.40230
C          0.51747       -3.92061        0.14235
C          1.20485       -4.24061       -1.20890
C          1.00435       -4.98252        1.15243
C         -0.99633       -4.10922       -0.06217
H          0.58724        0.43340        0.86680
H          0.85001        0.72567       -0.85167
H          2.13989       -0.00280        0.11828
H         -0.57766       -1.29085       -0.46457
H          0.88804       -1.59720       -1.37869
H          2.02958       -2.46915        0.60848
H          0.94090       -2.87780        2.77135
H          1.13962       -1.20997        2.36406
H         -1.47181       -2.75494        2.46122
H         -0.97133       -1.35234        3.38389
H         -1.35927       -1.16543        1.67436
H          2.28287       -4.05160       -1.16101
H          1.06827       -5.29342       -1.48367
H          0.78918       -3.64809       -2.03004
H          0.46471       -4.91972        2.10269
H          0.84687       -5.99726        0.76801
H          2.07493       -4.87028        1.35727
H         -1.54592       -4.09600        0.88024
H         -1.42208       -3.34649       -0.72008
H         -1.20650       -5.08198       -0.52391
