29

C          1.52470       -0.46629        0.20431
C          0.97177        0.03815        1.52843
C          1.23943        1.52660        1.76570
C          0.45510        2.45443        0.84351
O         -0.95267        2.30331        1.09665
C         -1.72094        1.87760        0.05889
O         -1.29941        1.59336       -1.05522
C         -3.21277        1.88061        0.41711
C         -3.54011        1.74351        1.90048
O         -4.01095        2.91014       -0.19556
C         -3.58822        4.16668       -0.45586
C         -2.63928        4.81812        0.50317
O         -4.02118        4.78323       -1.42548
H          1.06118        0.03715       -0.64831
H          1.33208       -1.53904        0.10208
H          2.60692       -0.31111        0.14913
H         -0.10237       -0.17125        1.58166
H          1.44214       -0.53180        2.33842
H          0.96255        1.75389        2.80257
H          2.31106        1.73236        1.66273
H          0.70677        3.49389        1.08153
H          0.72481        2.29793       -0.20579
H         -3.58063        0.94895       -0.03527
H         -3.25214        2.62396        2.47894
H         -4.61982        1.61952        2.03991
H         -3.03081        0.87805        2.33699
H         -1.62550        4.80545        0.09839
H         -2.95651        5.85629        0.64804
H         -2.66104        4.36042        1.48912
