16

C          1.00259       -0.23336       -0.17251
C          0.56086       -0.72736       -1.51838
C          0.62050       -2.05179       -1.92747
C          1.09500       -3.14740       -1.13857
N          1.48200       -4.02195       -0.48113
S          0.05510       -2.26691       -3.52260
C         -0.28720       -0.60426       -3.71418
N         -0.79931       -0.15347       -4.87794
C          0.02663        0.10527       -2.57062
C         -0.16833        1.52385       -2.47059
N         -0.32237        2.67118       -2.38536
H          0.62332       -0.88202        0.62395
H          0.64017        0.77818        0.03243
H          2.09624       -0.21956       -0.11991
H         -0.90130       -0.77426       -5.67666
H         -0.93499        0.83267       -5.08713
