46

O          2.12991       -1.70579        0.61008
C          3.03095       -0.88660        0.61722
O          3.67520       -0.51598       -0.51302
C          3.49082       -0.14041        1.84077
C          2.87374        1.24646        1.93189
C          1.37821        1.18503        2.15935
O          0.92274        1.06800        3.29640
N          0.52394        1.21366        1.10240
C          0.78581        1.49832       -0.31406
C          0.07177        0.50154       -1.24396
C         -1.41516        0.26458       -1.06364
C         -1.91104       -1.03781       -1.22168
C         -3.29350       -1.32199       -1.22677
I         -3.71098       -3.31512       -1.79752
C         -4.22212       -0.29430       -0.99562
O         -5.59680       -0.34417       -1.05098
C         -6.31075       -1.46631       -0.74570
C         -6.20014       -2.15194        0.46243
C         -6.95314       -3.31652        0.64912
I         -6.69025       -4.39523        2.42191
C         -7.84098       -3.76166       -0.34315
O         -8.55227       -4.92246       -0.19032
C         -7.99841       -3.01669       -1.51485
I         -9.31749       -3.58363       -3.03398
C         -7.24106       -1.86308       -1.70925
C         -3.71226        1.01218       -0.82962
I         -4.98504        2.68661       -0.57135
C         -2.33818        1.29113       -0.88235
C          0.50006        2.94368       -0.73068
O          0.70077        3.41594       -1.83916
O         -0.03263        3.71079        0.24045
H          4.41239        0.10875       -0.37672
H          3.23779       -0.74517        2.71911
H          4.58469       -0.07274        1.81882
H          3.30353        1.77261        2.79384
H          3.11761        1.86295        1.06352
H         -0.44712        1.22835        1.39677
H          1.85848        1.39075       -0.48775
H          0.23169        0.78890       -2.29137
H          0.57898       -0.46355       -1.11935
H         -1.19629       -1.84400       -1.39687
H         -5.51184       -1.80069        1.22581
H         -8.25931       -5.34904        0.63399
H         -7.33751       -1.27608       -2.61959
H         -2.01411        2.32388       -0.81710
H         -0.17044        4.58709       -0.17879
