24

O          0.19651        0.63250        0.04436
C          0.88436        1.86340        0.25789
C          1.74435        1.84504        1.52575
O          2.98784        1.15619        1.40400
C          2.95984       -0.24109        1.11744
C          2.78433       -1.17290        2.32412
O          1.50571       -1.79160        2.45688
C          0.46498       -1.05839        3.10103
C          0.72989       -0.70628        4.56841
O          1.61781        0.40006        4.71486
H          0.60206        0.20378       -0.72580
H          1.49187        2.08577       -0.62517
H          0.11160        2.63123        0.35458
H          2.00969        2.88409        1.75227
H          1.19747        1.48638        2.39367
H          2.29006       -0.48560        0.29469
H          3.97251       -0.43066        0.73930
H          3.44829       -2.02714        2.14009
H          3.13185       -0.72778        3.25492
H          0.19239       -0.18957        2.50787
H         -0.41033       -1.71770        3.07903
H         -0.20828       -0.40896        5.04540
H          1.14259       -1.56379        5.10940
H          2.45317        0.05624        5.06895
