26

N          2.28005       -0.03759       -0.28820
C          0.90988        0.03069       -0.01339
C          0.13390       -1.13035       -0.00854
C         -1.25532       -1.06021        0.14790
C         -1.90006        0.17514        0.24842
N         -3.29252        0.20938        0.44994
N         -3.85854        0.88917       -0.43454
C         -5.24940        0.93048       -0.22104
C         -5.88425        2.17168       -0.10058
C         -7.26766        2.25096        0.07976
C         -8.03067        1.08546        0.13210
C         -7.41347       -0.15728        0.00039
C         -6.03043       -0.23285       -0.18076
C         -1.12592        1.33970        0.18992
C          0.26249        1.26686        0.03245
H          2.71345       -0.90848        0.00233
H          2.80188        0.77392        0.02795
H          0.60345       -2.10377       -0.12117
H         -1.84012       -1.97555        0.17720
H         -5.29338        3.08269       -0.14553
H         -7.74792        3.22111        0.17674
H         -9.10721        1.14574        0.27158
H         -8.00631       -1.06739        0.03538
H         -5.55399       -1.20321       -0.29189
H         -1.60850        2.31087        0.25610
H          0.83246        2.18838       -0.04747
