34

C          1.63815        0.23834        1.08040
C          0.80695       -0.69129        1.92863
O         -0.10055       -0.26261        2.64330
C          1.08307       -2.15419        1.93850
C          1.99897       -2.73697        1.15512
C          2.19480       -4.16794        1.08329
C          2.70474       -4.81663        0.01555
C          2.89582       -6.31158        0.05196
C          3.12210       -4.14908       -1.28722
C          1.98888       -3.94625       -2.31222
C          0.89764       -3.00007       -1.87423
C          0.68674       -1.73625       -2.29327
C         -0.47505       -0.93071       -1.77068
C          1.57382       -1.02816       -3.27759
H          1.10068        1.18279        0.95164
H          1.80505       -0.16829        0.08133
H          2.59352        0.43169        1.57321
H          0.43504       -2.72974        2.59170
H          2.60927       -2.13795        0.48876
H          1.87853       -4.74105        1.95461
H          2.38019       -6.78726       -0.78807
H          3.96236       -6.55373       -0.01194
H          2.51097       -6.75856        0.97480
H          3.62171       -3.19334       -1.09166
H          3.89639       -4.76915       -1.75928
H          2.43428       -3.59897       -3.25172
H          1.52417       -4.91273       -2.54421
H          0.19858       -3.42888       -1.15553
H         -0.14085        0.05732       -1.43615
H         -1.22471       -0.79195       -2.55541
H         -0.95999       -1.41202       -0.91459
H          2.63165       -1.21681       -3.06816
H          1.34420       -1.35028       -4.29758
H          1.43267        0.05719       -3.22833
