38

C          2.39502        1.29976        0.26371
C          1.21813        0.37300        0.07651
C          1.44829       -1.00165        0.25779
C          0.42867       -1.92014        0.06449
C         -0.79870       -1.47889       -0.40853
C         -1.04236       -0.11057       -0.64972
C         -2.26995        0.17816       -1.46644
C         -0.07945        0.84171       -0.26412
N         -0.26448        2.24337       -0.19463
C         -1.32489        3.09357       -0.00829
O         -1.12414        4.30825       -0.03730
C         -2.69170        2.64704        0.27720
C         -3.67144        3.07676       -0.62794
C         -4.98261        2.59284       -0.52999
S         -6.10236        3.01371       -1.82651
N         -6.20053        1.56944       -2.68121
O         -7.41247        3.28992       -1.29254
O         -5.44511        3.92587       -2.73505
C         -5.33635        1.74971        0.52596
Cl        -6.88629        1.00934        0.69107
C         -4.37270        1.41170        1.48956
C         -3.05221        1.85124        1.36441
O         -2.18525        1.43599        2.33296
H          2.50306        1.95340       -0.60942
H          2.27196        1.90268        1.16754
H          3.33532        0.74410        0.34879
H          2.43111       -1.36358        0.55295
H          0.60671       -2.98058        0.22082
H         -1.56166       -2.21928       -0.64595
H         -3.16455        0.18541       -0.84593
H         -2.16565        1.10524       -2.03562
H         -2.41832       -0.60949       -2.21574
H          0.58345        2.79864       -0.19113
H         -3.38061        3.73480       -1.44715
H         -7.15473        1.20756       -2.64095
H         -5.85667        1.71202       -3.63245
H         -4.63554        0.76136        2.32213
H         -1.27701        1.70247        2.10393
