52

O         -0.88328       -0.38845       -0.71071
C         -0.86943       -1.63627       -1.40003
C          0.12572       -1.64382       -2.57665
N          1.57181       -1.70895       -2.34224
C          2.08365       -1.01405       -1.17018
C          2.12835       -1.86844        0.11933
N          2.83608       -3.13708       -0.01913
C          4.25269       -3.16975        0.36462
C          5.31736       -2.26699       -0.31683
C          5.25687       -0.79397        0.01782
C          6.10181        0.24691       -0.21646
C          7.52220        0.06405       -0.65616
C          7.95215       -0.99886       -1.46879
C          9.30800       -1.21818       -1.73717
C         10.26621       -0.34630       -1.24051
C          9.86186        0.76251       -0.50547
C          8.50260        0.98138       -0.21938
S          8.14407        2.45211        0.72848
C          6.40303        2.67778        0.44756
C          5.88478        3.97398        0.64335
C          4.52054        4.23459        0.51326
C          3.66841        3.19870        0.17338
Cl         1.97591        3.47766        0.03930
C          4.17892        1.92312       -0.06094
C          5.55077        1.62239        0.08817
C          2.43982       -3.85387       -1.23800
C          2.23058       -3.00640       -2.51778
H         -0.42109       -0.50555        0.13489
H         -0.69740       -2.45699       -0.69893
H         -1.88029       -1.76538       -1.80005
H         -0.16917       -2.44849       -3.26040
H         -0.03998       -0.71245       -3.13446
H          3.09917       -0.71189       -1.43663
H          1.55292       -0.07395       -0.99263
H          1.10710       -2.11233        0.42457
H          2.50868       -1.28694        0.96442
H          4.30352       -2.98842        1.44626
H          4.59746       -4.20715        0.24988
H          6.29573       -2.65846       -0.01437
H          5.21697       -2.39349       -1.40058
H          4.34316       -0.54915        0.53925
H          7.24377       -1.69010       -1.91067
H          9.61184       -2.07686       -2.33076
H         11.32149       -0.51755       -1.43402
H         10.61829        1.45778       -0.14588
H          6.54799        4.79686        0.90363
H          4.13521        5.23690        0.67668
H          3.47627        1.16397       -0.37575
H          1.47898       -4.33735       -1.01598
H          3.13260       -4.67544       -1.45774
H          1.71907       -3.60930       -3.27819
H          3.22369       -2.80143       -2.93912
