49

C          1.24006        0.01043       -0.00272
C          0.58844       -1.14378       -0.19949
C         -0.87866       -1.26706       -0.32269
O         -1.45775       -2.34136       -0.30523
O         -1.46937       -0.05868       -0.45577
C         -2.90439       -0.04561       -0.35060
C         -3.60097       -0.33258       -1.68996
O         -3.40131       -1.68000       -2.13470
C         -5.11538       -0.07906       -1.62320
O         -5.42365        1.26726       -1.21745
C         -5.68582        1.44500        0.10828
O         -5.67195        0.51961        0.90608
C         -6.01538        2.90173        0.46870
C         -5.51406        3.83139       -0.69410
C         -7.55757        3.09438        0.50203
C         -8.46686        2.07670        1.20241
C         -8.62844        2.26845        2.69575
C         -5.20544        3.43400        1.70078
C         -5.33939        2.97023        3.15939
C         -5.01757        1.52519        3.53786
C         -3.60475        1.08253        3.18802
H          0.72366        0.96296        0.07280
H          2.32031        0.02360        0.09909
H          1.12549       -2.08458       -0.24570
H         -3.23069       -0.74023        0.43274
H         -3.13759        0.96860       -0.02065
H         -3.15939        0.31936       -2.45195
H         -2.86659       -2.16187       -1.46868
H         -5.54987       -0.22087       -2.61993
H         -5.61358       -0.82592       -0.99106
H         -5.98517        3.59144       -1.65437
H         -5.74005        4.88387       -0.48351
H         -4.42961        3.74258       -0.83384
H         -7.79661        4.10618        0.85288
H         -7.89603        3.06945       -0.54615
H         -9.46732        2.19544        0.76382
H         -8.17635        1.04554        0.98100
H         -8.67280        3.32797        2.96516
H         -9.55397        1.79530        3.03869
H         -7.81891        1.78688        3.24188
H         -4.13818        3.36709        1.44984
H         -5.41000        4.51523        1.75262
H         -4.64703        3.59706        3.74147
H         -6.32389        3.24434        3.54307
H         -5.14156        1.41524        4.62293
H         -5.75137        0.84256        3.10889
H         -2.88783        1.46534        3.92101
H         -3.53860       -0.01073        3.19694
H         -3.29046        1.42706        2.20218
