26

C          1.12795       -0.04023       -0.00243
C          0.70342        0.37188       -1.40199
C          1.15574       -0.56121       -2.50122
O          0.63084       -0.58042       -3.60783
O          2.21403       -1.32333       -2.12395
C          2.71633       -2.27041       -3.08126
C          2.29733       -3.68686       -2.68209
C          0.77896       -3.94496       -2.73610
C          0.24761       -3.95095       -4.17066
C          0.44825       -5.28035       -2.06494
H          0.78548       -1.05369        0.23162
H          0.70501        0.64483        0.73892
H          2.21758       -0.01870        0.10373
H         -0.39165        0.40502       -1.43391
H          1.08932        1.37076       -1.62840
H          2.42939       -2.02612       -4.10889
H          3.80920       -2.20074       -3.03994
H          2.81812       -4.40853       -3.32320
H          2.64182       -3.86150       -1.65448
H          0.25758       -3.16159       -2.17445
H          0.68546       -4.76960       -4.75188
H         -0.84025       -4.07913       -4.17573
H          0.46693       -3.01583       -4.69197
H          0.79276       -5.28996       -1.02547
H         -0.63349       -5.45204       -2.05774
H          0.92189       -6.11775       -2.58821
