15

Cl         0.99894        0.12033       -0.05686
C          2.76362       -0.08539        0.07183
C          3.24892       -1.50766       -0.08799
C          2.43814       -2.61393        0.23078
C          2.91511       -3.92310        0.11185
C          4.21963       -4.15679       -0.30695
C          5.05227       -3.07963       -0.59800
C          4.57554       -1.76829       -0.48211
Cl         5.69687       -0.49367       -0.81900
H          3.17466        0.55798       -0.71030
H          3.07237        0.30071        1.04823
H          1.41615       -2.47865        0.57975
H          2.26301       -4.75988        0.35287
H          4.59122       -5.17440       -0.39678
H          6.07724       -3.26659       -0.90858
