63

C          1.32195        0.26257       -0.59949
C          1.13130       -1.21993       -0.32293
C          1.43375       -1.61552        1.12331
C          0.57207       -0.93390        2.19086
C         -0.94385       -1.07825        2.01709
C         -1.47563       -2.51281        1.92660
C         -1.06619       -3.44975        3.06468
C         -1.41613       -2.96786        4.47144
C         -2.91720       -2.97452        4.78661
C         -3.35216       -4.00135        5.83985
C         -2.56097       -4.04152        7.15106
C         -3.23384       -3.36578        8.33584
O         -3.76287       -4.08455        9.18132
N         -3.22602       -1.97445        8.44620
C         -2.31949       -1.09340        7.69718
C         -3.01407        0.01041        6.88775
C         -3.26403        1.34120        7.60106
C         -1.99841        2.01958        8.10220
C         -3.86570       -1.40241        9.63784
C         -5.37673       -1.17825        9.49072
C         -6.26657       -2.41528        9.64863
C         -6.18466       -3.05947       11.02638
H          0.62003        0.87319       -0.02427
H          1.14936        0.47044       -1.66025
H          2.33999        0.57952       -0.35275
H          0.11154       -1.51335       -0.59369
H          1.80004       -1.78675       -0.98194
H          1.33337       -2.70328        1.21366
H          2.48655       -1.39298        1.33961
H          0.86620       -1.32590        3.17195
H          0.81487        0.13536        2.22184
H         -1.43748       -0.56245        2.84986
H         -1.25811       -0.53789        1.11609
H         -2.56929       -2.46983        1.86460
H         -1.14319       -2.96133        0.98288
H         -1.52343       -4.43287        2.89822
H          0.01708       -3.61254        3.02106
H         -0.86316       -3.60839        5.16277
H         -1.02496       -1.95682        4.62992
H         -3.21520       -1.97936        5.12019
H         -3.50330       -3.15427        3.87754
H         -4.41947       -3.85451        6.04945
H         -3.26906       -4.98981        5.36873
H         -2.48659       -5.10156        7.43671
H         -1.52299       -3.71749        7.07995
H         -1.58743       -0.69189        8.40477
H         -1.73010       -1.68619        6.99968
H         -2.38394        0.22815        6.01449
H         -3.96924       -0.35860        6.49618
H         -3.75249        2.01729        6.88788
H         -3.96658        1.21480        8.42871
H         -1.26394        2.12914        7.29798
H         -2.23517        3.01879        8.48178
H         -1.53723        1.45956        8.92023
H         -3.63725       -2.02804       10.50630
H         -3.38917       -0.43865        9.84902
H         -5.68485       -0.44670       10.24854
H         -5.58759       -0.72337        8.51564
H         -7.30711       -2.11228        9.47931
H         -6.04106       -3.15329        8.87302
H         -6.47381       -2.34918       11.80713
H         -6.86288       -3.91710       11.08064
H         -5.18026       -3.42411       11.25594
