26

C          1.23529       -0.24405        0.08449
N          0.45970       -1.44400        0.36827
C         -0.98600       -1.20747        0.33388
C         -1.54453       -1.04046       -1.06668
C         -1.66441        0.27074       -1.56619
C         -2.13621        0.50761       -2.85146
C         -2.50677       -0.56301       -3.65750
C         -2.41407       -1.88233       -3.19286
C         -2.80981       -2.94312       -4.02384
C         -2.73705       -4.26400       -3.58831
C         -2.25735       -4.54160       -2.31578
C         -1.85156       -3.49759       -1.47951
C         -1.92375       -2.14380       -1.88558
H          0.94759        0.58490        0.73984
H          1.13613        0.07242       -0.95824
H          2.29559       -0.44697        0.26426
H          0.69224       -2.16258       -0.31698
H         -1.48871       -2.04293        0.83349
H         -1.24617       -0.33836        0.95261
H         -1.37586        1.11832       -0.94759
H         -2.21372        1.52482       -3.22510
H         -2.87454       -0.35733       -4.66082
H         -3.18649       -2.74500       -5.02560
H         -3.05496       -5.07166       -4.24191
H         -2.19934       -5.56980       -1.96828
H         -1.48053       -3.76504       -0.49299
