29

C          1.08139        0.20617        0.03475
C          0.71303       -0.14756       -1.39838
C          1.17418       -1.54518       -1.82172
C          0.61921       -2.70452       -0.98307
C         -0.92087       -2.82661       -0.95194
C         -1.54921       -2.99843       -2.35436
C         -1.10479       -4.23719       -3.12118
C         -1.37871       -3.96401       -0.01082
C         -1.06901       -3.70021        1.45763
H          0.54655       -0.42135        0.75376
H          0.81735        1.24749        0.24515
H          2.15649        0.08874        0.20441
H         -0.36903       -0.04367       -1.53381
H          1.17881        0.58584       -2.06756
H          0.92193       -1.69640       -2.87736
H          2.27005       -1.58180       -1.76928
H          1.05382       -3.63953       -1.35686
H          1.00279       -2.59574        0.03688
H         -1.32889       -1.89416       -0.54150
H         -2.64143       -3.03129       -2.25064
H         -1.33814       -2.11277       -2.96443
H         -1.35446       -5.15592       -2.58280
H         -1.61285       -4.27606       -4.09045
H         -0.02853       -4.22851       -3.31480
H         -2.46430       -4.09245       -0.10605
H         -0.91840       -4.91446       -0.30293
H         -1.44570       -2.72183        1.77150
H         -1.54497       -4.46247        2.08301
H          0.00576       -3.73922        1.65632
