25

C          0.79700        0.07661        0.36570
C          0.40508        1.50250        0.00719
C          1.11388        2.03579       -1.23676
O          0.65146        1.38239       -2.42931
C          1.40027        0.34251       -2.86394
O          2.40026       -0.12599       -2.34926
C          0.76399       -0.22425       -4.06357
C          0.56003        0.56654       -5.20030
C         -0.00187       -0.00153       -6.34577
C         -0.36560       -1.34999       -6.34055
O         -0.91374       -1.90820       -7.46244
C         -0.16843       -2.13425       -5.19668
Cl        -0.62405       -3.79812       -5.15734
C          0.40903       -1.57535       -4.05761
H          0.44823       -0.63506       -0.38832
H          0.34690       -0.20923        1.32178
H          1.88303       -0.02075        0.46286
H         -0.68026        1.53782       -0.14121
H          0.64551        2.15351        0.85552
H          0.86615        3.09659       -1.35459
H          2.20413        1.97766       -1.13728
H          0.85233        1.61418       -5.20052
H         -0.14530        0.61611       -7.22773
H         -0.92794       -1.25468       -8.18009
H          0.57894       -2.18033       -3.17039
