39

F          2.39480        0.68021       -0.40829
C          1.07685        0.44737       -0.39214
C          0.60261       -0.82906       -0.65851
C         -0.77071       -1.08157       -0.61659
C         -1.68480       -0.06388       -0.30027
C         -3.19414       -0.30195       -0.17610
C         -3.84071       -0.91323       -1.43877
C         -3.66618       -2.25121       -1.83686
C         -4.21943       -2.73733       -3.02610
C         -4.94618       -1.88630       -3.84302
F         -5.45670       -2.34839       -4.99200
C         -5.13936       -0.56021       -3.48890
C         -4.59385       -0.07812       -2.29439
N         -3.70746       -0.79341        1.12792
C         -3.51015       -2.19258        1.51578
C         -2.19099       -2.51829        2.24809
N         -1.96013       -1.66519        3.42328
C         -2.06618       -0.25241        3.02532
C         -3.38038        0.08362        2.27394
C         -1.17148        1.23241       -0.06964
C          0.20100        1.48379       -0.10505
H          1.30410       -1.62577       -0.88455
H         -1.10473       -2.09446       -0.81190
H         -3.61103        0.71680       -0.19914
H         -3.07936       -2.94447       -1.24564
H         -4.07355       -3.77143       -3.32160
H         -5.70354        0.09372       -4.14581
H         -4.75082        0.96975       -2.04503
H         -4.32590       -2.43572        2.21289
H         -3.66518       -2.89181        0.69667
H         -1.33656       -2.44649        1.57211
H         -2.22097       -3.56145        2.58288
H         -2.69558       -1.85755        4.10290
H         -1.19003        0.01161        2.42733
H         -2.00820        0.36402        3.92962
H         -3.38612        1.14210        1.98784
H         -4.20373       -0.01392        2.99514
H         -1.84279        2.05623        0.16726
H          0.59080        2.47537        0.10063
