43

C          2.71960       -1.27499        0.44728
C          1.22505       -1.16407        0.52053
C          0.40792       -1.90772       -0.34003
C         -0.97794       -1.74674       -0.30864
C         -1.55168       -0.84902        0.59773
S         -3.29362       -0.53936        0.47304
O         -3.63389       -0.42259       -0.92870
O         -3.93647       -1.52946        1.31316
N         -3.55747        0.92407        1.23723
C         -3.85898        2.09932        0.54048
O         -4.86708        2.72671        0.84602
N         -2.98157        2.60701       -0.39507
N         -1.64365        2.19037       -0.47293
C         -1.25477        1.80758       -1.83788
C         -0.22142        2.81908       -2.33862
C         -0.65946        3.58550       -3.58075
C         -1.55362        4.68603       -3.03668
C         -0.86403        5.10772       -1.74664
C         -0.10615        3.87390       -1.23798
C         -0.69739        3.20901       -0.00601
C         -0.75317       -0.15023        1.50419
C          0.63406       -0.30473        1.45751
H          3.10844       -1.76215        1.34611
H          3.03540       -1.85670       -0.42511
H          3.16566       -0.27877        0.35426
H          0.84573       -2.59682       -1.05914
H         -1.60226       -2.29887       -1.00820
H         -4.21299        0.75899        1.99696
H         -3.25450        3.50898       -0.77094
H         -0.78366        0.81999       -1.80057
H         -2.11446        1.70896       -2.51161
H          0.73632        2.31270       -2.50666
H         -1.17198        2.95699       -4.31506
H          0.21698        4.02854       -4.06906
H         -2.55548        4.29783       -2.82544
H         -1.65827        5.51815       -3.73895
H         -1.56780        5.52138       -1.01829
H         -0.13633        5.89720       -1.97460
H          0.94011        4.14447       -1.05144
H         -1.13818        3.92504        0.69765
H          0.10473        2.69512        0.53702
H         -1.18742        0.55214        2.20937
H          1.25648        0.27380        2.13702
