31

C          1.04413       -0.04941       -0.08107
O          0.14360        1.02114        0.18206
C          0.64828        1.91667        1.10828
N          1.98993        2.02384        1.27825
C          2.37615        2.90590        2.22892
C          1.46925        3.64776        2.96638
N          0.13380        3.54178        2.78835
C         -0.27130        2.68555        1.83240
N         -1.65058        2.34505        1.83819
S         -2.77761        3.57864        1.93153
O         -2.45881        4.54355        0.89908
O         -4.07476        2.93266        1.95165
C         -2.56291        4.33701        3.52107
C         -2.52618        5.73038        3.60360
C         -2.19505        6.33930        4.81564
C         -1.93126        5.57113        5.95442
N         -1.41403        6.18218        7.10390
C         -1.94970        4.17565        5.84823
C         -2.29697        3.55256        4.64586
H          0.58289       -0.69139       -0.83750
H          1.19351       -0.64921        0.82331
H          2.00092        0.29904       -0.48397
H          3.44415        2.99466        2.39494
H          1.78854        4.33701        3.74102
H         -1.91165        1.67607        1.11470
H         -2.70618        6.34365        2.72381
H         -2.11774        7.42263        4.85460
H         -1.53372        5.63369        7.94924
H         -1.71356        7.14495        7.22307
H         -1.66399        3.55955        6.69670
H         -2.28347        2.46838        4.57534
