24

C          1.68564        1.30676        0.35895
C          0.74280        0.25618        0.90529
N          0.69877        0.20410        2.34717
C         -0.25191       -0.19434        3.20615
O         -0.05554       -0.04112        4.41277
N         -1.44286       -0.73485        2.81093
C         -1.99402       -1.52029        1.79858
O         -3.16849       -1.87762        1.85762
C         -1.17474       -2.02383        0.65531
C         -0.14218       -3.01807        0.85195
N          0.70144       -3.78991        1.03170
N         -1.44215       -1.60513       -0.55138
O         -0.58088       -2.14504       -1.52285
C         -1.25405       -2.16716       -2.77953
H          1.35746        2.31291        0.63324
H          1.70968        1.23661       -0.73393
H          2.70403        1.16136        0.73222
H         -0.26379        0.43990        0.52855
H          1.10919       -0.71698        0.57649
H          1.50380        0.57658        2.84278
H         -2.06936       -0.74771        3.60801
H         -2.00054       -2.96693       -2.77578
H         -1.73256       -1.20590       -2.99226
H         -0.51946       -2.37621       -3.56204
