40

O          1.12312        0.27210       -0.43807
C          2.21793        0.01390        0.02875
O          2.88489       -1.13902       -0.17770
C          2.97758        0.94425        0.88821
C          4.19855        1.41886        0.37838
C          4.94660        2.34309        1.10218
C          4.46934        2.80971        2.32240
C          3.24670        2.35175        2.82234
C          2.47663        1.39797        2.12558
C          1.14207        0.89796        2.70886
C          1.34856       -0.15558        3.81132
C          0.81702       -1.44737        3.64011
C          0.91744       -2.40450        4.65336
C          1.54953       -2.08321        5.84659
O          1.59642       -3.03536        6.82083
C          2.10182       -0.82370        6.03857
C          2.00338        0.13324        5.02380
C          0.15443        2.03302        3.04141
C         -0.58015        2.09012        4.23824
C         -1.49365        3.12154        4.47322
C         -1.69984        4.09631        3.50803
O         -2.60429        5.07944        3.77823
C         -1.01284        4.05466        2.30259
C         -0.09900        3.02369        2.06946
H          3.71635       -1.21504        0.33006
H          4.55314        1.09298       -0.59788
H          5.88752        2.71754        0.70603
H          5.04036        3.54639        2.88351
H          2.88799        2.76799        3.76202
H          0.60777        0.36695        1.91294
H          0.29536       -1.71459        2.72221
H          0.48554       -3.39210        4.51685
H          1.98654       -2.64329        7.61913
H          2.59595       -0.56118        6.96876
H          2.41071        1.12161        5.21442
H         -0.47525        1.32791        5.00586
H         -2.05307        3.15183        5.40395
H         -2.67350        5.65420        2.99857
H         -1.17766        4.79968        1.53111
H          0.40981        2.98945        1.10659
