18

Br         0.99638       -0.11742       -0.02293
C          2.90185       -0.02145       -0.06350
C          3.57203       -1.24702       -0.07220
C          4.95912       -1.27722       -0.10079
C          5.68173       -0.08198       -0.12205
Br         7.58131       -0.26077       -0.15833
C          5.03024        1.18010       -0.11585
C          5.72699        2.41479       -0.13963
C          5.06349        3.64156       -0.13231
C          3.68059        3.67169       -0.09991
C          2.96467        2.47496       -0.07639
C          3.60735        1.21109       -0.08461
H          3.02026       -2.18395       -0.05657
H          5.46979       -2.23727       -0.10643
H          6.81415        2.44200       -0.16526
H          5.63154        4.56801       -0.15187
H          3.15314        4.62202       -0.09314
H          1.87971        2.54950       -0.05130
