29

O          1.79603       -1.55443       -0.42727
C          2.54338       -0.84589        0.22542
N          2.54608        0.51186        0.04763
C          3.69081        1.08227        0.16494
O          3.68607        2.42136        0.15751
C          5.00286        0.32072        0.37726
C          5.56016       -0.39701       -0.88231
C          5.94220        0.39275       -2.13513
C          5.76335        1.89675       -2.10841
C          6.59733        2.65476       -1.07741
C          7.10118        1.89389        0.14930
C          6.09803        1.16762        1.06246
C          4.53621       -0.84220        1.24861
O          5.41655       -1.38330        2.09331
N          3.38413       -1.40384        1.16537
H          4.52196        2.84974        0.38063
H          6.45799       -0.95640       -0.57310
H          4.87004       -1.18868       -1.20599
H          6.98228        0.15961       -2.39832
H          5.34540       -0.00059       -2.96940
H          6.02202        2.28665       -3.10230
H          4.70241        2.13739       -2.00562
H          7.48697        3.03573       -1.59748
H          6.05462        3.55636       -0.77094
H          7.65015        2.61061        0.77545
H          7.85821        1.17148       -0.18148
H          6.71678        0.52989        1.70784
H          5.64939        1.88491        1.76103
H          4.98809       -2.14934        2.51783
