31

C          1.04110       -0.02827       -0.07308
C          0.77074        0.46508        1.33508
O          1.25017        1.80692        1.51050
C          2.57365        1.93600        1.83789
O          3.35452        0.99320        1.89253
C          2.91602        3.40953        2.17243
C          2.51745        4.29075        0.97949
C          2.13127        3.77214        3.44028
O          4.34323        3.41154        2.41637
C          4.99356        4.60851        2.48074
C          4.85212        5.47563        3.56223
C          5.60163        6.65363        3.61761
C          6.51920        6.93932        2.60865
Cl         7.45625        8.37968        2.69087
C          6.69721        6.05356        1.54764
C          5.93739        4.88207        1.48913
H          0.62624        0.66486       -0.81175
H          0.59694       -1.01620       -0.22623
H          2.11573       -0.09772       -0.26711
H         -0.30986        0.49176        1.51107
H          1.20004       -0.20646        2.08753
H          1.44158        4.24106        0.77817
H          2.76605        5.34345        1.15105
H          3.04431        3.97818        0.07080
H          2.56821        3.28474        4.31948
H          2.13769        4.85114        3.62141
H          1.07942        3.47333        3.37971
H          4.19299        5.23689        4.38932
H          5.48086        7.32914        4.46023
H          7.43271        6.26020        0.77498
H          6.09238        4.17651        0.67677
