28

C          1.08494        0.04756        0.42100
N          0.55575        1.38633        0.52580
C         -0.77695        1.65903        0.46870
O         -1.67857        0.84288        0.34478
C         -0.99271        3.13888        0.58475
C          0.42104        3.72888        0.76346
C          0.54897        4.30997        2.18482
C          0.76512        4.70349       -0.36942
C          1.07277        6.05424       -0.13706
C          1.39624        6.91400       -1.19180
C          1.41508        6.44375       -2.50077
C          1.10885        5.11249       -2.75819
C          0.78773        4.25207       -1.70545
C          1.32473        2.49832        0.71681
O          2.54133        2.51159        0.84910
H          0.79583       -0.36729       -0.54949
H          0.64200       -0.57237        1.20595
H          2.17377        0.04131        0.51331
H         -1.63910        3.33041        1.44830
H         -1.50670        3.49234       -0.31505
H          1.56173        4.68252        2.37892
H         -0.15563        5.13363        2.34729
H          0.34313        3.54704        2.94594
H          1.07969        6.47174        0.86635
H          1.64078        7.95337       -0.98667
H          1.67303        7.11251       -3.31743
H          1.12608        4.73895       -3.77894
H          0.56225        3.21581       -1.95012
