32

C         -0.69698        0.14670        0.18772
C         -0.67861        1.49405       -0.51531
C          0.50782        1.71799       -1.45409
O          0.50617        0.93593       -2.64404
C          1.10046       -0.35916       -2.55883
C          2.65327       -0.42695       -2.60524
C          3.41784        0.88861       -2.50421
O          3.32985       -1.42647       -1.82388
C          2.78925       -1.92045       -0.61020
C          3.55868       -1.50811        0.65473
C          3.54824       -0.01403        0.93472
O          2.98158       -2.17420        1.78412
H         -1.07507       -0.63775       -0.47369
H         -1.35847        0.18242        1.05897
H          0.29745       -0.13549        0.54249
H         -1.62076        1.62404       -1.05763
H         -0.63540        2.27138        0.25806
H          0.46102        2.76040       -1.79109
H          1.44006        1.61279       -0.90087
H          0.64405       -0.91706       -1.75111
H          0.74529       -0.88946       -3.45283
H          2.86650       -0.75573       -3.63250
H          3.37438        1.32158       -1.50635
H          4.48196        0.71932       -2.70696
H          3.04808        1.62609       -3.22239
H          1.72909       -1.72432       -0.46970
H          2.84996       -3.01452       -0.67836
H          4.59957       -1.84025        0.57690
H          2.54709        0.40639        0.80401
H          3.83733        0.19076        1.97131
H          4.24356        0.51453        0.28032
H          2.08370       -1.81881        1.91919
