32

O          0.99713       -0.15627        0.38144
C          2.21840       -0.02239        0.35519
O          2.78557        1.08233       -0.18160
C          4.15463        1.17904       -0.58700
C          5.09359        1.90982        0.37665
O          6.31140        1.72396        0.31905
N          4.54746        2.75513        1.29575
C          5.21251        3.61476        2.25386
C          3.82049        3.90407        2.82409
C          3.21233        3.30168        1.54049
C          2.63090        4.31130        0.49559
O          1.46861        4.68599        0.37232
O          3.55767        4.84694       -0.34023
C          3.06957       -1.08398        0.93201
C          4.03849       -0.80638        1.90143
C          4.79599       -1.84490        2.44533
C          4.55510       -3.16268        2.05726
C          3.55350       -3.44749        1.12922
C          2.80887       -2.41009        0.56692
H          4.56789        0.18827       -0.80509
H          4.16785        1.74227       -1.52679
H          5.89128        3.08935        2.92961
H          5.71598        4.46480        1.78536
H          3.60578        4.96114        3.00531
H          3.58262        3.33679        3.73185
H          2.48305        2.52207        1.78855
H          3.03538        5.47017       -0.88929
H          4.20043        0.20263        2.26400
H          5.56415       -1.62827        3.18443
H          5.13675       -3.97134        2.49390
H          3.34547       -4.47830        0.85265
H          2.01309       -2.63762       -0.13985
