23

N          1.04967        0.05223        0.06931
P          0.45634       -0.51552        1.64855
N          1.78607        0.24410        2.27316
O         -0.71312        0.44662        1.48171
N         -0.13700       -1.08328        3.22780
C          0.11970       -0.49878        4.49891
C          0.61949       -1.37662        5.47734
C          0.91304       -0.94162        6.77553
C          0.70764        0.38752        7.13477
C          0.19174        1.27846        6.19952
C         -0.10789        0.82628        4.90233
N         -0.67432        1.81684        4.01776
O          0.13278        2.57061        3.45258
O         -1.90892        1.89100        3.97750
H          0.33787        0.73665       -0.18184
H          1.86593        0.60547        0.31112
H          1.55272        1.19018        2.56761
H          2.16533       -0.23189        3.08206
H         -1.14557       -0.99549        3.07371
H          0.78487       -2.42383        5.22689
H          1.30003       -1.64769        7.50740
H          0.93814        0.72432        8.14299
H          0.01666        2.31537        6.48118
