47

C         -0.65001       -0.72482       -1.15241
C         -0.48466       -1.37164        0.24116
C         -1.03157       -0.47613        1.34648
C         -0.23201        0.84979        1.43484
C          1.32487        0.73057        1.32601
C          1.83386       -0.51538        0.54071
C          3.27847       -0.75610        0.96858
C          4.12067        0.32690        0.31259
C          3.60771        1.73163        0.56074
C          4.52671        2.71445        0.58888
C          4.16378        4.12300        0.84532
O          5.01595        4.99522        0.69113
C          2.74588        4.44378        1.25268
C          1.98594        3.20423        1.74372
C          2.09161        2.00753        0.75744
C          1.47873        2.44417       -0.60200
C          0.94758       -1.73853        0.66067
C          1.33984       -2.93431       -0.21918
C          0.03608       -3.68163       -0.51619
C         -1.01681       -2.77781        0.09009
O         -2.17171       -3.12369        0.31981
H         -0.52105        0.35820       -1.14049
H         -1.65219       -0.91446       -1.55403
H          0.06599       -1.12027       -1.88101
H         -0.98400       -0.99432        2.31386
H         -2.09405       -0.26039        1.18018
H         -0.62910        1.52476        0.67375
H         -0.48139        1.33345        2.38904
H          1.64956        0.60418        2.37113
H          1.85440       -0.27884       -0.52856
H          3.64237       -1.74025        0.65833
H          3.38169       -0.71655        2.06187
H          4.14092        0.14779       -0.77008
H          5.15221        0.21920        0.67051
H          5.58014        2.53275        0.40101
H          2.24321        4.90086        0.39347
H          2.78605        5.18783        2.05481
H          0.93943        3.47829        1.91872
H          2.40003        2.90839        2.71782
H          2.09237        3.18848       -1.11987
H          1.36329        1.61186       -1.29920
H          0.49195        2.90151       -0.46382
H          0.95664       -2.09080        1.70441
H          1.82642       -2.61715       -1.14910
H          2.04829       -3.58913        0.30096
H          0.01466       -4.67744       -0.07244
H         -0.12299       -3.74334       -1.59882
