38

C          1.23291       -0.40833        0.86028
C          0.52625        0.93067        1.05469
C          1.23455        2.11126        0.39124
N          0.77067        2.50348       -0.99364
C          1.17117        3.90519       -1.27504
C          2.66444        4.24337       -1.25364
C          3.59060        3.43592       -2.14281
S          0.82726        1.25339       -2.15499
O          2.19475        0.79731       -2.27161
O         -0.20876        0.32121       -1.74736
C          0.32601        1.73268       -3.80349
C          0.54078        2.97431       -4.39485
C          0.08980        3.22245       -5.70028
C         -0.51986        2.21089       -6.45062
C         -0.97823        2.52787       -7.82465
O         -0.96406        3.62701       -8.34124
O         -1.43096        1.44595       -8.48310
C         -0.67056        0.94188       -5.89144
C         -0.26065        0.71109       -4.57554
H          0.95778       -0.89545       -0.07618
H          0.95482       -1.09761        1.66414
H          2.32148       -0.29752        0.87451
H         -0.52881        0.86912        0.76921
H          0.53645        1.12077        2.13670
H          1.04120        2.97430        1.04436
H          2.32069        1.96765        0.38941
H          0.66885        4.28692       -2.15782
H          0.70800        4.52199       -0.48914
H          2.76042        5.29746       -1.54499
H          3.04295        4.18848       -0.22588
H          3.18834        3.29680       -3.14767
H          4.55395        3.94742       -2.24221
H          3.80710        2.46281       -1.69673
H          1.08455        3.77077       -3.91487
H          0.23540        4.20969       -6.13748
H         -1.69767        1.79489       -9.35919
H         -1.10424        0.12495       -6.46334
H         -0.38030       -0.29022       -4.16078
