22

C          1.04849       -0.08505        0.14736
C          0.43507        0.78828        1.24552
C          1.15395        2.14092        1.36085
C          0.84196        3.08091        0.19947
C         -0.66266        3.26625        0.01267
O         -0.90473        4.06369       -1.14177
C         -1.39127        1.93086       -0.12639
C         -1.07305        0.98942        1.03265
H          0.94523        0.35966       -0.84668
H          0.56635       -1.06821        0.12490
H          2.11615       -0.24356        0.33313
H          0.57317        0.25207        2.19351
H          0.84507        2.62493        2.29653
H          2.23759        1.99050        1.43236
H          1.29221        2.70358       -0.72703
H          1.31202        4.05663        0.37342
H         -1.06911        3.81195        0.87225
H         -0.54438        3.59184       -1.91220
H         -1.13160        1.45902       -1.08210
H         -2.47273        2.10794       -0.17574
H         -1.56566        0.02377        0.86859
H         -1.50527        1.40659        1.95152
