8

F          0.95045        0.03256        0.13771
C          2.30682        0.04929        0.08711
F          2.72044        0.98834        0.97528
F          2.72802       -1.15090        0.56114
C          2.82555        0.31995       -1.33406
F          2.38142       -0.65165       -2.18515
Cl         2.24323        1.89842       -1.95591
Cl         4.61838        0.31712       -1.39012
