18

C          0.99065        0.07560       -0.02625
C          0.44193       -0.29300        1.36239
N          0.91521        0.73028        2.31769
C         -1.10960       -0.27765        1.33886
O         -1.64260       -1.26522        0.45484
C          0.95743       -1.69980        1.77706
O          0.59513       -2.71927        0.85143
H          0.64355        1.06747       -0.33926
H          0.67386       -0.63904       -0.79342
H          2.08703        0.09147       -0.02856
H          0.63596        0.47572        3.26576
H          1.93608        0.74622        2.32301
H         -1.50615       -0.49482        2.33735
H         -1.49905        0.70231        1.03811
H         -1.64348       -0.87137       -0.43749
H          2.05088       -1.70239        1.85025
H          0.56330       -1.98341        2.75977
H         -0.36744       -2.61685        0.69003
