11

Cl         0.98614        0.32608        0.00213
C          2.74839        0.06198        0.09301
Cl         3.47274        1.10375       -1.21118
Cl         3.36088        0.71879        1.63476
C          3.18315       -1.38016       -0.19251
C          2.74839       -2.53470        0.71762
Cl         0.98613       -2.81123        0.75678
Cl         3.47273       -4.05562        0.02987
Cl         3.36087       -2.41852        2.38942
H          2.85728       -1.62619       -1.21531
H          4.28363       -1.39032       -0.23472
