24

C          1.36790        1.18140       -0.13102
C          0.63242        1.35505       -1.23301
O         -0.62564        0.92798       -1.52559
C         -1.36826        0.14116       -0.59409
C         -1.28137       -1.34648       -0.94584
C         -0.02520       -2.05754       -0.43270
C          0.06169       -2.19249        1.08999
O         -0.68093       -3.32447        1.54320
C         -1.93899       -3.18138        2.04070
C         -2.67447       -2.08081        2.22316
H          1.02538        0.64172        0.74040
H          2.37296        1.59052       -0.08660
H          1.01669        1.91005       -2.08383
H         -1.12439        0.36919        0.44705
H         -2.41349        0.44800       -0.72256
H         -2.16861       -1.86291       -0.56709
H         -1.30239       -1.44963       -2.03812
H         -0.00419       -3.06167       -0.87479
H          0.86204       -1.53536       -0.80347
H          1.10691       -2.41111        1.34071
H         -0.18218       -1.27625        1.63448
H         -2.32327       -4.16374        2.29932
H         -3.67954       -2.16757        2.62543
H         -2.33196       -1.08373        1.98557
