24

C          1.25460       -0.12202        0.21900
C          0.33780       -0.84281        0.88230
C         -1.17218       -0.76220        0.80812
F         -1.63415       -2.00297        0.47698
F         -1.63415       -0.53512        2.07207
C         -1.77349        0.27658       -0.14780
F         -1.32977        1.52506        0.18226
F         -1.32977        0.05121       -1.41935
C         -3.29060        0.24189       -0.11588
F         -3.74300       -0.99610       -0.45393
F         -3.74300        0.47609        1.14588
C         -3.86664        1.27570       -1.06722
F         -3.41757        2.51680       -0.73337
F         -3.41757        1.04594       -2.33173
C         -5.37748        1.25452       -1.04773
F         -5.84490        0.02083       -1.39106
F         -5.84490        1.49435        0.21019
C         -5.91191        2.29884       -2.00874
F         -5.51689        3.55129       -1.68134
F         -5.51689        2.07644       -3.28403
F         -7.26877        2.30935       -2.01841
H          0.99309        0.65379       -0.49492
H          2.31515       -0.29737        0.38036
H          0.69066       -1.60017        1.57924
