28

C          0.75574       -0.01216        0.01988
C          0.42699        1.11868        0.96451
C         -0.07074        0.69187        2.36468
C          0.06619        1.99179        3.19032
C          0.59254        3.01911        2.15108
C         -0.56741        3.39130        1.18992
O         -1.72934        3.80129        1.86921
C         -0.68918        2.04570        0.47237
O         -1.59494        1.74843       -0.29647
C          1.54352        2.15795        1.27014
C          2.10538        2.87538        0.02663
C          2.75993        1.60052        2.03776
H          0.88320        0.34984       -1.00606
H         -0.05218       -0.75193        0.00179
H          1.67404       -0.52838        0.31537
H          0.53740       -0.11042        2.79556
H         -1.11229        0.34990        2.34925
H         -0.88554        2.28590        3.64339
H          0.78045        1.85530        4.00924
H          1.04760        3.89328        2.62403
H         -0.27217        4.16716        0.47818
H         -2.46554        3.69671        1.23630
H          2.69251        3.75162        0.32380
H          2.76607        2.20808       -0.53931
H          1.34084        3.21467       -0.67704
H          2.50564        1.00546        2.91760
H          3.36486        0.95413        1.39179
H          3.40060        2.42091        2.38115
