12

C          2.31742       -0.06272       -0.00498
C          0.84030        0.01294       -0.00222
C         -0.07845       -1.06120       -0.00012
N         -1.34882       -0.65187        0.00118
N         -1.24998        0.68661       -0.00012
C          0.03878        1.13426       -0.00160
H          2.67495       -0.60439        0.87651
H          2.67208       -0.58560       -0.89890
H          2.76696        0.93544        0.00492
H          0.12889       -2.12397        0.00036
H         -2.10521        1.23237       -0.00005
H          0.26661        2.19055       -0.00246
