34

C          0.88499       -0.04619       -0.27278
C          0.28025        0.93643        0.40707
C         -1.17185        1.21057        0.37551
O         -1.62535        2.29382        0.71107
O         -1.87536        0.11914       -0.00418
C         -3.30593        0.25210       -0.04658
C         -3.96346       -0.37626        1.18836
C         -3.60120        0.30151        2.52687
C         -4.28206        1.67370        2.63326
C         -4.00722       -0.54802        3.75160
C         -3.28629       -1.89108        3.89493
O         -1.86455       -1.70754        3.98120
C         -1.13468       -2.12921        2.92125
O         -1.55839       -2.62055        1.88602
C          0.30693       -1.88886        3.12988
C          0.89953       -1.84105        4.32957
H          0.33078       -0.73378       -0.90507
H          1.96128       -0.17243       -0.21823
H          0.85366        1.63233        1.00965
H         -3.61795        1.29034       -0.19848
H         -3.63667       -0.29990       -0.93395
H         -5.05245       -0.36346        1.05471
H         -3.66906       -1.42835        1.21395
H         -2.51946        0.45879        2.57908
H         -5.37233        1.57209        2.66885
H         -3.96241        2.19363        3.54265
H         -4.03623        2.31972        1.78656
H         -3.79261        0.04022        4.65396
H         -5.08954       -0.72612        3.73882
H         -3.59614       -2.35251        4.83965
H         -3.57568       -2.59158        3.10522
H          0.88640       -1.80691        2.21784
H          1.97167       -1.69287        4.40710
H          0.34218       -1.97069        5.25196
