46

C         -0.56539        0.01835       -0.07180
O         -0.69051        0.31020       -1.45424
C          0.39317        1.05404       -2.01123
O          1.65539        0.66546       -1.46684
C          2.35337        1.82225       -0.98872
C          3.05656        1.47127        0.33065
O          4.25412        0.70988        0.13702
S          4.15177       -0.71887       -0.64820
O          3.11081       -1.50259       -0.01381
O          4.18030       -0.45607       -2.07434
C          5.68453       -1.54964       -0.31600
C          6.87742       -0.82820       -0.25709
C          8.08483       -1.52181       -0.14768
C          8.09826       -2.92382       -0.09148
C          9.39108       -3.68555       -0.07130
C          6.88651       -3.62739       -0.11031
C          5.67843       -2.94364       -0.22014
C          1.31294        2.92641       -0.84525
O          1.80995        4.19453       -1.26274
C          1.45086        4.32718       -2.64550
C          2.69541        4.24001       -3.52447
C          0.75536        5.66823       -2.84552
O          0.56197        3.27602       -3.02329
C          0.23437        2.56075       -1.82405
H         -1.45206       -0.54051        0.23916
H         -0.51022        0.93734        0.51715
H          0.30781       -0.61212        0.12133
H          0.41294        0.81248       -3.07951
H          3.12008        2.07814       -1.72423
H          3.35531        2.38777        0.85049
H          2.39175        0.91013        0.99770
H          6.88167        0.25527       -0.34322
H          9.01925       -0.96417       -0.13865
H          9.41214       -4.37797        0.77588
H          9.49959       -4.25339       -1.00177
H         10.25190       -3.01565        0.01767
H          6.88086       -4.71485       -0.07265
H          4.74529       -3.50066       -0.27378
H          0.93231        2.99156        0.17957
H          2.45778        4.46369       -4.57007
H          3.47891        4.92034       -3.17723
H          3.11292        3.22842       -3.52133
H         -0.14363        5.73504       -2.22309
H          1.40988        6.50013       -2.56469
H          0.43805        5.79870       -3.88611
H         -0.76870        2.86430       -1.50885
