35

C          1.26744       -0.63715       -0.87954
C          0.89782        0.60341       -1.39462
C         -0.43834        1.00157       -1.35799
C         -1.41446        0.18370       -0.76895
C         -2.82472        0.70032       -0.59583
C         -3.25237        1.02205        0.84909
O         -2.65688        2.17528        1.45420
C         -1.27824        2.08083        1.81805
C         -0.86049        3.39014        2.50117
C          0.62867        3.37738        2.84950
C          1.01608        2.15958        3.68656
C          0.53539        0.85568        3.06105
C         -0.95508        0.90326        2.74455
C         -1.03840       -1.08120       -0.29515
C          0.29823       -1.48487       -0.34692
H          2.31124       -0.93895       -0.89005
H          1.65088        1.27143       -1.80282
H         -0.70613        1.98824       -1.73261
H         -2.96675        1.59124       -1.21904
H         -3.50395       -0.06537       -0.99417
H         -4.32432        1.25308        0.81086
H         -3.17129        0.15283        1.50769
H         -0.68327        2.01978        0.90991
H         -1.08190        4.24153        1.84613
H         -1.45891        3.54510        3.40792
H          0.89185        4.29279        3.39082
H          1.21517        3.37738        1.92186
H          0.58502        2.25692        4.68992
H          2.10485        2.12616        3.80767
H          0.74287        0.01829        3.73621
H          1.09666        0.66504        2.13774
H         -1.54239        0.98682        3.66749
H         -1.24069       -0.05179        2.29891
H         -1.77510       -1.74607        0.14882
H          0.58827       -2.45557        0.04863
