21

Cl         0.93711       -0.08229       -0.03450
C          2.66980       -0.10264       -0.04227
C          3.31041        1.14956       -0.04602
C          4.71803        1.21028       -0.05210
C          5.41380        0.00425       -0.05459
O          6.75512        0.24239       -0.06068
C          6.93437        1.58624       -0.06163
C          8.17838        2.21255       -0.06685
C          8.18435        3.61252       -0.06654
Cl         9.73794        4.37841       -0.07261
C          6.98920        4.34567       -0.06142
Cl         7.01661        6.08133       -0.06085
C          5.75931        3.66131       -0.05653
Cl         4.23500        4.44901       -0.04996
C          5.71147        2.24955       -0.05645
C          4.80893       -1.25852       -0.05110
Cl         5.79919       -2.67109       -0.05456
C          3.40490       -1.29846       -0.04461
Cl         2.58361       -2.83051       -0.03929
H          2.71364        2.05826       -0.04399
H          9.09404        1.63049       -0.07072
