20

O          1.29934        0.07017        0.05649
C          0.62906        0.31634       -1.18440
C         -0.18634       -0.90034       -1.59932
O          0.73826       -1.80214       -2.24553
C          1.89857       -1.03487       -2.65737
C          2.01660       -1.01588       -4.16610
O          1.69158       -2.26675       -4.75213
C          1.04541        0.08618       -4.54936
O          1.05162        1.04148       -3.47449
C          1.63673        0.41947       -2.31101
H          1.54808       -0.87182        0.08640
H          0.00255        1.20499       -1.06942
H         -0.64438       -1.42070       -0.75353
H         -0.96085       -0.64106       -2.32827
H          2.76906       -1.46836       -2.15664
H          3.03232       -0.73149       -4.46288
H          1.02554       -2.67521       -4.16221
H          0.02450       -0.28943       -4.67978
H          1.33601        0.58465       -5.47909
H          2.55003        0.96184       -2.04824
