52

O          1.29384       -1.42252       -0.61213
C          2.47345       -1.10243       -0.49224
N          2.95275       -0.66885        0.72672
C          4.15236        0.02334        0.97064
C          4.93188       -0.49161        2.01975
C          6.24294       -0.05832        2.20660
C          6.76770        0.92427        1.37676
C          5.95919        1.51830        0.40383
C          4.62743        1.10659        0.20025
S          3.72196        2.11391       -0.99407
S          1.72357        2.06518       -0.48037
C          0.88739        2.63955       -1.96930
C          1.18165        3.95317       -2.38682
C          0.49156        4.54844       -3.44010
C         -0.55642        3.86727       -4.03631
C         -0.86565        2.56982       -3.62470
C         -0.10264        1.89765       -2.65949
N         -0.30289        0.52033       -2.37762
C         -0.93465       -0.49386       -3.08030
O         -1.06518       -1.61396       -2.58712
C         -1.46779       -0.31625       -4.44718
C         -2.81450       -0.63413       -4.66176
C         -3.39592       -0.40111       -5.90743
C         -2.62908        0.13225       -6.94357
C         -1.27015        0.39220       -6.75014
C         -0.67849        0.14605       -5.50766
C          3.40014       -1.22396       -1.64775
C          4.64584       -1.84480       -1.50555
C          5.54441       -1.84831       -2.57217
C          5.19564       -1.24616       -3.78154
C          3.93628       -0.67125       -3.94044
C          3.03119       -0.68205       -2.88149
H          2.41722       -1.00669        1.51721
H          4.55564       -1.30026        2.64269
H          6.86271       -0.51145        2.97657
H          7.80083        1.24281        1.49345
H          6.38669        2.31651       -0.20116
H          1.95121        4.53320       -1.88180
H          0.74346        5.55505       -3.76170
H         -1.14492        4.33836       -4.81981
H         -1.74179        2.11681       -4.07466
H          0.15600        0.14712       -1.54342
H         -3.40954       -1.04780       -3.85028
H         -4.44731       -0.62798       -6.06482
H         -3.09121        0.33723       -7.90655
H         -0.67698        0.79897       -7.56566
H          0.37741        0.35562       -5.36055
H          4.92750       -2.31004       -0.56521
H          6.52076       -2.31050       -2.45594
H          5.90485       -1.22906       -4.60458
H          3.66136       -0.20103       -4.88056
H          2.06146       -0.21950       -3.00830
