29

N          2.43421       -0.60615        0.59206
C          1.05544       -0.42492        0.43903
C          0.29539       -1.36617       -0.25996
C         -1.08818       -1.21684       -0.37729
C         -1.72724       -0.15430        0.26732
S         -3.45087        0.10456       -0.08492
O         -3.61523        0.02422       -1.52012
O         -4.18994       -0.76290        0.80853
N         -3.80582        1.66161        0.40109
C         -3.25854        2.86151       -0.13076
C         -3.68812        4.05855        0.45338
C         -3.09049        5.27542        0.11228
C         -2.05310        5.29713       -0.81618
I         -1.09675        7.08628       -1.25826
C         -1.64262        4.11806       -1.43408
C         -2.25656        2.90474       -1.10240
C         -0.99560        0.71662        1.07564
C          0.39269        0.57313        1.15994
H          2.86330       -1.12676       -0.16743
H          2.93774        0.25297        0.79240
H          0.77894       -2.20984       -0.74587
H         -1.65857       -1.92383       -0.97637
H         -4.51781        1.70720        1.12721
H         -4.47850        4.05786        1.19987
H         -3.43144        6.18842        0.59386
H         -0.83590        4.11906       -2.16329
H         -1.90430        2.00834       -1.60403
H         -1.47380        1.52383        1.62151
H          0.95857        1.26495        1.77920
