21

Cl         0.97574       -0.10328       -0.06396
C          2.70188        0.02057       -0.05056
C          3.42449       -1.17925       -0.04422
C          4.81252       -1.06964       -0.03304
O          5.68184       -2.11626       -0.02540
C          6.93818       -1.59404       -0.01491
C          8.11597       -2.33661       -0.00437
C          9.31366       -1.61052        0.00606
Cl        10.78415       -2.52297        0.01964
C          9.30913       -0.20721        0.00556
Cl        10.77096        0.71816        0.01860
C          8.10039        0.50953       -0.00553
C          6.88776       -0.20463       -0.01591
C          5.50330        0.13689       -0.02793
C          4.76192        1.33312       -0.03475
C          3.35852        1.26077       -0.04603
Cl         2.49475        2.75987       -0.05379
H          2.94012       -2.14873       -0.04755
H          8.09390       -3.42015       -0.00415
H          8.09996        1.59595       -0.00584
H          5.26756        2.29469       -0.03117
