65

C          1.10943        0.00778       -0.06079
C          0.86728       -0.67668        1.27174
O          1.22803        0.17124        2.36970
C          2.55310        0.21788        2.68473
O          3.43666       -0.36686        2.08061
C          2.79071        1.02297        3.98137
C          2.52142        2.54375        3.70228
C          1.11121        3.09653        3.35656
C          0.24724        3.26336        4.57772
C         -0.00153        4.50918        5.16715
C         -0.48969        4.59002        6.47667
C         -0.69146        3.43435        7.21028
C         -0.56074        2.21646        6.57489
C         -0.17968        2.12691        5.24185
N          2.15175        0.27856        5.12815
C          2.89691        0.35377        6.40826
C          3.16158        1.79496        6.87012
C          2.33130       -0.45018        7.63788
O          3.08964       -0.52444        8.62498
N          1.05024       -0.94795        7.80952
C          0.47154       -0.61371        9.14054
C          0.85703       -1.45890       10.35198
O          0.69471       -1.11856       11.51743
O          1.23662       -2.71900       10.07484
C         -1.05627       -0.65642        8.97460
C         -1.24225       -1.53907        7.75377
C         -2.53414       -1.32127        6.97852
C         -2.53785       -2.15610        5.69219
C         -1.21150       -2.11959        4.91011
C          0.03989       -2.30510        5.80211
C         -0.02535       -1.21740        6.86838
H          0.64943        1.00083       -0.07967
H          0.69695       -0.59052       -0.87870
H          2.17935        0.14653       -0.24450
H         -0.20133       -0.88769        1.38250
H          1.39351       -1.63566        1.33446
H          3.87876        0.94681        4.12779
H          2.92576        3.13775        4.52934
H          3.15177        2.80324        2.83795
H          1.24879        4.09049        2.90606
H          0.60250        2.50571        2.59003
H          0.22982        5.42860        4.63837
H         -0.65445        5.55134        6.95031
H         -0.94122        3.45884        8.26596
H         -0.69196        1.33076        7.16409
H         -0.07779        1.15993        4.75840
H          2.18364       -0.70999        4.87030
H          3.87455       -0.11745        6.23152
H          2.28927        2.43699        6.73557
H          3.42557        1.85473        7.93117
H          3.99581        2.23326        6.31198
H          0.77476        0.41459        9.38453
H          1.41078       -3.09357       10.96324
H         -1.58379       -1.05643        9.84795
H         -1.45601        0.34815        8.80856
H         -1.19860       -2.58555        8.09137
H         -2.64561       -0.26027        6.72300
H         -3.40084       -1.58463        7.59688
H         -3.35390       -1.80878        5.04596
H         -2.76428       -3.19717        5.94958
H         -1.23127       -2.87765        4.12039
H         -1.14128       -1.14781        4.40182
H          0.04118       -3.30808        6.24496
H          0.93915       -2.23295        5.18961
H         -0.17567       -0.29907        6.32602
