15

O          1.06182        0.11097       -0.03698
C          2.28402        0.13424       -0.03705
O          3.01149        1.25558        0.16500
C          4.43375        1.10753        0.06605
C          4.93880        0.59474        1.36123
C          5.48754        1.19542        2.47499
C          5.75042        0.15561        3.39950
C          5.34821       -1.01005        2.79163
O          4.86229       -0.75493        1.55008
H          2.89902       -0.76088       -0.21432
H          4.70540        0.45223       -0.76963
H          4.85281        2.09724       -0.14310
H          5.66575        2.25384        2.60747
H          6.17390        0.24395        4.39016
H          5.33952       -2.04837        3.09349
