42

C          0.52817        0.62633        0.46300
C         -0.12952       -0.02493        1.43649
C         -1.53810       -0.50627        1.32406
C          0.61631       -0.27218        2.69533
O          1.34456        0.55008        3.22733
O          0.46070       -1.56907        3.05692
C          1.37379       -2.03724        4.06180
C          1.93635       -3.40754        3.68943
O          2.79149       -3.48509        2.55167
C          2.32599       -2.98609        1.30801
C          1.04508       -3.56063        0.66721
O          0.33910       -4.61332        1.30384
C          1.01473       -5.85019        1.52407
C          1.61513       -6.54542        0.30423
O          2.74311       -5.80465       -0.18934
C          2.77479       -5.61643       -1.53098
O          2.01850       -6.11482       -2.35174
C          3.74632       -4.54398       -1.87073
C          4.96106       -4.50141       -1.30028
C          3.26018       -3.53910       -2.86731
H          0.06122        0.84540       -0.49109
H          1.55735        0.95297        0.59655
H         -1.58492       -1.59935        1.31066
H         -2.13388       -0.14451        2.16752
H         -2.01166       -0.14453        0.40469
H          2.20061       -1.34269        4.23718
H          0.80026       -2.14312        4.98902
H          2.55872       -3.74687        4.52635
H          1.12620       -4.13121        3.59956
H          2.27361       -1.89408        1.35092
H          3.14402       -3.14922        0.59922
H          0.33118       -2.73691        0.57518
H          1.22362       -3.82048       -0.37970
H          1.77559       -5.72980        2.29548
H          0.24861       -6.51378        1.94238
H          1.99114       -7.52547        0.61623
H          0.83867       -6.68950       -0.45289
H          5.66694       -3.71235       -1.54044
H          5.27893       -5.24126       -0.57124
H          2.81218       -4.02710       -3.73830
H          2.50151       -2.89537       -2.40743
H          4.06949       -2.89629       -3.22717
