37

C          1.11315        0.42767       -0.21223
C          0.81246       -0.67159       -1.21978
C          1.26055       -2.05821       -0.74990
C          0.59118       -2.55336        0.53745
C         -0.93496       -2.67821        0.46240
C         -1.44252       -3.69100       -0.57030
C         -1.00262       -5.13660       -0.31186
C         -1.53130       -5.74057        0.99458
C         -3.05939       -5.84353        1.08384
C         -3.70490       -6.70552       -0.01067
C         -3.30827       -8.17420        0.09093
C         -5.20944       -6.59946        0.10115
O         -5.92448       -6.20242       -0.81497
H          0.55047        0.28923        0.71565
H          0.83532        1.40296       -0.62353
H          2.18014        0.45263        0.03092
H         -0.25757       -0.67218       -1.45392
H          1.33171       -0.43779       -2.15684
H          1.08544       -2.77788       -1.55810
H          2.34618       -2.04441       -0.59202
H          1.02905       -3.52069        0.80898
H          0.84698       -1.88087        1.36415
H         -1.31340       -2.94439        1.45587
H         -1.37417       -1.69924        0.23936
H         -2.53675       -3.63856       -0.60524
H         -1.10651       -3.39549       -1.57076
H         -1.31725       -5.75600       -1.15905
H          0.09146       -5.19575       -0.30767
H         -1.09066       -6.73592        1.12261
H         -1.16991       -5.15281        1.84634
H         -3.32007       -6.25202        2.06951
H         -3.49687       -4.83753        1.06565
H         -3.43643       -6.32706       -1.00289
H         -3.53947       -8.58064        1.08187
H         -3.85159       -8.77615       -0.64541
H         -2.23861       -8.31196       -0.09397
H         -5.64872       -6.91409        1.06313
