30

C          2.47376       -0.04106        0.01816
C          0.97369        0.01122        0.01595
C          0.23726       -1.17733       -0.05665
C         -1.15722       -1.14278       -0.07433
C         -1.82566        0.08518       -0.01284
S         -3.59260        0.03842       -0.07473
O         -3.98016       -0.45927       -1.37834
O         -4.06109       -0.55484        1.16109
C         -4.21896        1.63277       -0.04331
C         -4.11593        2.57023       -1.03892
O         -4.72918        3.72150       -0.66328
C         -5.29404        3.52320        0.58409
S         -6.21601        4.80863        1.41750
N         -5.14202        6.05438        1.76781
O         -7.17067        5.32579        0.46784
O         -6.59715        4.25074        2.69414
C         -4.98388        2.22840        0.98697
C         -1.10342        1.27614        0.08199
C          0.29443        1.23426        0.09045
H          2.83110       -0.57867        0.90212
H          2.83398       -0.54877       -0.88262
H          2.91095        0.96265        0.03261
H          0.74811       -2.13724       -0.10499
H         -1.71685       -2.07451       -0.13801
H         -3.65753        2.57907       -2.01937
H         -5.59597        6.94565        1.56075
H         -4.85554        5.98722        2.74506
H         -5.29544        1.77830        1.92184
H         -1.58695        2.24498        0.14876
H          0.85330        2.16645        0.15316
