24

C          1.50154       -1.14436        0.10814
C          1.57758        0.15487       -0.68752
C          1.23953        1.43025        0.07813
C         -0.18972        1.58889        0.59711
C         -1.29021        1.17607       -0.38049
C         -1.91243       -0.19305       -0.09652
C         -1.02666       -1.41800       -0.33519
C          0.13477       -1.56477        0.64801
H          2.20976       -1.10061        0.94491
H          1.86405       -1.94810       -0.54672
H          2.61202        0.25579       -1.04325
H          0.97493        0.08256       -1.59843
H          1.44657        2.27534       -0.59209
H          1.93237        1.54339        0.92129
H         -0.32295        2.65505        0.82647
H         -0.30764        1.08205        1.55998
H         -0.95378        1.24165       -1.42087
H         -2.10147        1.91078       -0.28767
H         -2.79358       -0.29399       -0.74364
H         -2.29379       -0.21387        0.93236
H         -0.68336       -1.45166       -1.37492
H         -1.67291       -2.29741       -0.21052
H          0.21781       -2.62635        0.91838
H         -0.07989       -1.05437        1.59202
