37

C          1.10905        0.29097       -0.16268
C          0.47885       -0.25627        1.12039
C          0.91741        0.55782        2.34743
O          0.41760        1.88580        2.31624
C         -1.05892       -0.29749        1.01055
C         -1.62890       -1.37089        0.07709
C         -1.13506       -2.81619        0.23893
C         -1.54733       -3.56657        1.52710
C         -1.34512       -5.08111        1.30000
C         -1.66866       -5.91443        2.53725
C         -0.87683       -5.44739        3.75120
C         -1.09833       -3.96422        4.00595
C         -0.76205       -3.12715        2.77398
H          0.74235        1.29515       -0.39847
H          0.88726       -0.35672       -1.01667
H          2.19875        0.34316       -0.06482
H          0.87020       -1.26658        1.27206
H          0.54302        0.08444        3.26179
H          2.00946        0.59542        2.42537
H          0.87132        2.35448        1.59571
H         -1.50896       -0.41708        2.00055
H         -1.42056        0.67839        0.65849
H         -2.72262       -1.36027        0.16828
H         -1.41870       -1.06582       -0.95633
H         -1.55645       -3.36781       -0.61364
H         -0.04908       -2.86803        0.10243
H         -2.61645       -3.39086        1.70609
H         -1.97704       -5.42090        0.47049
H         -0.30526       -5.27202        1.00347
H         -1.44612       -6.96884        2.33835
H         -2.74217       -5.84837        2.75170
H          0.19174       -5.63605        3.58972
H         -1.17428       -6.02363        4.63421
H         -0.47969       -3.63803        4.84984
H         -2.14344       -3.79094        4.29101
H          0.31504       -3.19582        2.57832
H         -0.97739       -2.08910        3.02549
