42

C          1.89823        0.56105        0.21933
C          1.16531        1.63105       -0.57937
C          1.17004        1.40345       -2.09164
C          0.43885        0.15700       -2.60265
C         -1.07649        0.31414       -2.71556
O         -1.53076        0.73469       -3.78528
N         -1.87326        0.03058       -1.60501
C         -1.38206       -0.51188       -0.33622
C         -3.29859        0.15364       -1.67504
C         -4.00151        0.68600       -0.58392
C         -5.39480        0.66163       -0.55415
C         -6.09970        0.09314       -1.61746
S         -7.86399       -0.01242       -1.45667
O         -8.14101       -0.57551       -0.14722
O         -8.38645        1.27709       -1.84338
N         -8.38218       -1.17184       -2.60880
C         -7.99830       -2.57412       -2.31691
C         -9.83852       -1.07378       -2.88109
C         -5.42116       -0.38849       -2.73781
C         -4.02086       -0.35248       -2.76486
H          1.69301       -0.45226       -0.13129
H          1.60422        0.61263        1.27301
H          2.98043        0.71405        0.16582
H          0.13793        1.73817       -0.22534
H          1.64667        2.59415       -0.36818
H          0.73917        2.29203       -2.57015
H          2.21491        1.34987       -2.42284
H          0.78559       -0.01917       -3.63176
H          0.71717       -0.75553       -2.07584
H         -1.30166        0.28931        0.40207
H         -2.07993       -1.27018        0.03707
H         -0.42230       -1.00794       -0.44779
H         -3.47287        1.14481        0.24746
H         -5.92451        1.08042        0.29916
H         -8.55157       -2.96688       -1.45863
H         -8.22565       -3.19772       -3.18858
H         -6.92689       -2.66855       -2.12850
H        -10.42071       -1.34971       -1.99598
H        -10.10896       -0.06185       -3.19556
H        -10.10853       -1.74607       -3.70156
H         -5.95798       -0.81322       -3.58148
H         -3.50284       -0.78021       -3.62055
