47

C          1.43648        0.67364        1.31636
C          0.24856        1.64989        1.34235
C          0.61341        3.03761        0.84201
O         -0.93794        1.09092        0.77531
P         -1.51460        1.27966       -0.84480
S          0.14934        0.46285       -1.69085
O         -2.57338        0.03767       -0.51653
C         -2.59966       -0.85625        0.61466
C         -1.34427       -1.63306        0.99509
C         -3.28273       -0.19844        1.81579
S         -2.22126        1.51094       -2.83013
C         -4.03866        1.73194       -2.76325
C         -4.87592        0.43660       -2.70746
N         -5.15619        0.05113       -1.30470
S         -5.99407       -1.40694       -1.05073
O         -5.99363       -2.15779       -2.27991
O         -5.48681       -1.95799        0.19046
C         -7.65964       -0.96238       -0.67265
C         -8.03838        0.35572       -0.42486
C         -9.35613        0.62025       -0.04789
C        -10.27555       -0.42477        0.08550
C         -9.88600       -1.74174       -0.15548
C         -8.57545       -2.01356       -0.53542
H          1.15989       -0.33611        1.00338
H          1.87534        0.58331        2.31632
H          2.23936        1.01960        0.65630
H         -0.00150        1.76356        2.40457
H          0.68836        3.08622       -0.24615
H         -0.15129        3.75880        1.14431
H          1.57209        3.35935        1.26473
H         -3.25707       -1.65180        0.26919
H         -0.73088       -1.09690        1.72126
H         -1.62522       -2.56617        1.49905
H         -0.73809       -1.88952        0.12474
H         -4.15708        0.38115        1.50317
H         -3.60266       -0.95103        2.54305
H         -2.62130        0.49700        2.34075
H         -4.28345        2.40417       -1.93443
H         -4.29515        2.25186       -3.69263
H         -5.84074        0.61994       -3.19331
H         -4.36139       -0.37305       -3.23449
H         -4.30057        0.00715       -0.74630
H         -7.32440        1.17029       -0.49270
H         -9.66841        1.64097        0.15821
H        -11.29796       -0.21364        0.38934
H        -10.59608       -2.55611       -0.03516
H         -8.25971       -3.04285       -0.69824
