8

O          1.05852        0.04293       -0.01299
C          2.28087        0.01536       -0.07252
O          3.03432        0.49131        0.95496
C          3.08890       -0.52275       -1.23418
Br         2.68809       -2.40532       -1.43426
Br         2.68809        0.54202       -2.79954
H          4.00308        0.44199        0.84848
H          4.16331       -0.44052       -1.05666
