44

C          0.45018        0.31035        1.37046
C         -0.19850        1.58417        1.88673
C          0.12245        2.88261        1.14069
C         -0.09878        3.00724       -0.36567
O         -1.38393        2.70308       -0.87840
C         -1.72818        1.33519       -1.07542
C         -0.92234        0.54717       -2.12684
O          0.50086        0.53576       -1.86600
C          1.27972        1.03180       -2.86453
O          0.87388        1.31484       -3.98311
C          2.70804        1.35069       -2.45504
C          3.30566        0.89854       -1.12154
C          3.29033       -0.59200       -0.76602
O          4.22805       -1.37332       -1.52504
C          3.67151       -1.83448       -2.68663
C          4.15092       -1.25113       -3.85903
C          3.46533       -1.44738       -5.05382
C          2.35853       -2.29404       -5.08014
Cl         1.45287       -2.46054       -6.53165
C          1.97187       -2.99827       -3.94036
C          2.64383       -2.78226       -2.73931
Cl         2.17344       -3.70291       -1.35626
H         -0.15481       -0.19701        0.61766
H          0.57804       -0.40880        2.18579
H          1.43127        0.50686        0.94969
H         -1.28159        1.44881        1.96540
H          0.15873        1.72511        2.91517
H         -0.45413        3.67866        1.62699
H          1.17919        3.12261        1.32434
H          0.06279        4.06388       -0.61648
H          0.69101        2.49908       -0.90121
H         -1.75692        0.82278       -0.11745
H         -2.77200        1.34182       -1.41440
H         -1.25886       -0.49640       -2.10947
H         -1.16324        0.94608       -3.11737
H          3.34905        1.03125       -3.27506
H          2.76198        2.44776       -2.45815
H          4.35170        1.23206       -1.11349
H          2.80810        1.45569       -0.32273
H          3.62313       -0.68349        0.27607
H          2.27447       -0.99516       -0.78726
H          4.99434       -0.56509       -3.81777
H          3.77191       -0.90406       -5.94378
H          1.13740       -3.69180       -3.98306
