27

C          1.02211        0.06212       -0.05187
C          0.48324        1.11852       -1.01068
C          1.02211        0.92732       -2.42446
C         -1.03427        1.11849       -1.01069
O         -1.70776        2.07988       -0.66009
O         -1.50548       -0.08833       -1.45078
O         -2.96497       -0.02784       -1.42871
C         -3.45043       -1.29729       -1.89165
C         -2.99114       -1.55114       -3.33163
C         -2.99113       -2.41852       -0.95311
C         -4.97969       -1.20393       -1.85760
H          0.75082       -0.95030       -0.37095
H          0.61640        0.20919        0.95495
H          2.11397        0.11446        0.01014
H          0.80375        2.10443       -0.65115
H          0.75082       -0.05283       -2.83200
H          0.61639        1.68800       -3.10024
H          2.11396        1.00730       -2.43822
H         -1.90102       -1.63942       -3.39596
H         -3.42617       -2.47163       -3.73475
H         -3.27493       -0.71635       -3.98246
H         -3.27492       -2.19865        0.08231
H         -3.42616       -3.38242       -1.23718
H         -1.90102       -2.52748       -0.96072
H         -5.33481       -0.98559       -0.84381
H         -5.33481       -0.38423       -2.49284
H         -5.45003       -2.13302       -2.19641
