16

C          0.92821       -0.03087        0.00302
C          0.41976        1.37204        0.02265
C          1.18348        2.46639        0.16902
C          0.48917        3.79332        0.13727
S         -1.19176        3.38068       -0.31891
O         -2.09553        3.88751        0.69738
O         -1.38134        3.69658       -1.72233
C         -1.05648        1.60302       -0.14648
H          0.64607       -0.52315       -0.93328
H          0.50716       -0.60112        0.83667
H          2.01952       -0.06805        0.08367
H          2.25958        2.42158        0.29689
H          0.91019        4.45834       -0.61896
H          0.49021        4.26499        1.12224
H         -1.61240        1.28876        0.74017
H         -1.45249        1.13283       -1.04894
