22

C          1.07571       -0.16927        0.18117
C          0.67957        0.62070       -1.07394
C          1.51824        0.10360       -2.25734
C         -0.83589        0.62740       -1.41859
Br        -1.94880        1.07788        0.15237
C         -1.11599        1.76712       -2.39241
O         -0.92083        2.95497       -2.13114
N         -1.54859        1.42998       -3.64422
C         -1.82154        0.18131       -4.10080
O         -2.16991       -0.01849       -5.25812
N         -1.69966       -0.83333       -3.20632
C         -1.33802       -0.72865       -1.89024
O         -1.38643       -1.73259       -1.17993
H          0.73142       -1.20603        0.14361
H          0.68286        0.29518        1.09024
H          2.16634       -0.18996        0.29084
H          0.99938        1.65704       -0.89544
H          1.34232       -0.96237       -2.43887
H          1.29467        0.64872       -3.17940
H          2.58753        0.23015       -2.05644
H         -1.68305        2.19110       -4.29636
H         -1.98147       -1.75027       -3.52662
