13

C         -2.00919       -0.71385       -0.00126
N         -2.15613        0.62954        0.00229
C         -1.03566        1.39203        0.00433
C          0.20558        0.77027        0.00288
C          1.56879        1.12384        0.00454
N          2.37932        0.05784        0.00111
N          1.51898       -0.98486       -0.00270
C          0.20627       -0.61163       -0.00128
N         -0.86382       -1.42301       -0.00356
H         -2.92887       -1.29183       -0.00233
H         -1.17453        2.46639        0.00707
H          2.00857        2.11303        0.00817
H          1.88433       -1.92910       -0.00615
