50

C          1.02639       -0.12972        0.19325
C          0.37307        0.56976       -0.99083
C          0.91352        0.10456       -2.34067
O         -1.07048        0.51863       -0.92832
C         -1.71662       -0.66491       -1.05073
O         -1.18961       -1.76480       -1.13301
N         -3.06906       -0.52342       -1.14029
C         -3.83609        0.72650       -1.11956
C         -4.69346        0.75700       -2.41558
O         -5.92038        0.64037       -2.40202
N         -4.09394        0.91260       -3.63444
C         -2.67432        0.91150       -3.96620
C         -2.33857       -0.35631       -4.74947
C         -2.27993        2.16881       -4.70793
N         -1.45190        2.19847       -5.73198
C         -1.19349        3.50388       -6.10591
C         -0.33579        3.90736       -7.15030
C         -0.17518        5.26851       -7.42526
C         -0.85697        6.21282       -6.67121
F         -0.69619        7.51235       -6.95352
C         -1.70234        5.84951       -5.62541
C         -1.85232        4.48090       -5.35699
S         -2.78903        3.71365       -4.13703
C         -4.70191        0.80195        0.16671
C         -3.86149        0.59630        1.43520
C         -5.43236        2.14626        0.28798
H          0.85586       -1.20957        0.17893
H          0.61113        0.24893        1.13297
H          2.10783        0.04039        0.19610
H          0.61405        1.63662       -0.90630
H          0.71146       -0.95418       -2.52560
H          0.44211        0.66542       -3.15442
H          1.99601        0.25606       -2.40159
H         -3.57345       -1.39412       -1.25189
H         -3.16347        1.59105       -1.14383
H         -4.75023        0.92541       -4.40629
H         -2.08530        0.91551       -3.05654
H         -2.85052       -0.37366       -5.71885
H         -1.26237       -0.43456       -4.93794
H         -2.64852       -1.25108       -4.19811
H          0.19223        3.15697       -7.73066
H          0.47982        5.59305       -8.22810
H         -2.21971        6.60461       -5.04461
H         -5.45783        0.00580        0.13818
H         -3.06875        1.34836        1.51053
H         -4.48730        0.67378        2.33118
H         -3.39710       -0.39441        1.45492
H         -6.11563        2.32011       -0.54747
H         -6.03299        2.17547        1.20436
H         -4.72379        2.98047        0.32442
