26

N          0.89677       -0.03747       -0.27983
C          0.49225       -0.81182        0.91473
C          1.15906       -0.38999        2.23389
S          0.85094        1.28920        2.91848
S          1.41403        2.60739        1.44574
C          0.56624        4.17641        1.89602
C         -0.96116        4.19367        1.71841
N         -1.69843        3.32283        2.65745
C         -1.47035        5.62814        1.87932
O         -2.28939        6.17620        1.15619
O         -1.00879        6.25897        2.97887
C         -1.02651       -0.84980        1.05390
O         -1.69330       -1.83622        1.33112
O         -1.63273        0.34512        0.87854
H          0.55519        0.91978       -0.14886
H          1.91306        0.05027       -0.29071
H          0.79653       -1.84625        0.70986
H          0.83067       -1.07978        3.02102
H          2.24535       -0.51200        2.15551
H          0.86199        4.44617        2.91588
H          1.00073        4.94272        1.24156
H         -1.20223        3.88673        0.69279
H         -2.67760        3.28431        2.37793
H         -1.32913        2.37345        2.56636
H         -1.52135        7.09262        3.01604
H         -2.58464        0.12287        0.95499
