19

C          1.24522       -0.02706       -0.13342
C          0.39303       -0.02070       -1.36438
O         -0.65969       -0.64627       -1.46031
N          0.84653        0.79548       -2.42144
N          0.00492        1.04465       -3.48251
C          0.68132        1.87614       -4.27705
C          1.95538        2.14483       -3.78610
C          3.06884        2.91635       -4.25445
O          3.06683        3.58814       -5.27793
N          4.16541        2.81946       -3.42155
C          4.16718        2.08170       -2.25518
N          3.16100        1.39852       -1.79965
C          2.06187        1.45114       -2.60202
H          0.75997       -0.65139        0.62440
H          1.32678        0.98407        0.27557
H          2.22810       -0.45870       -0.33107
H          0.21430        2.23453       -5.18636
H          4.98530        3.33266       -3.71013
H          5.12666        2.11699       -1.71434
