30

O          0.95814       -0.43769        0.70849
C          2.14478       -0.29750        0.44951
O          2.82049       -1.19656       -0.30679
C          2.99914        0.87437        0.92771
O          2.46109        2.17036        0.68178
C          2.82696        2.66182       -0.54033
C          3.55742        3.84269       -0.57307
C          3.94759        4.38234       -1.80220
C          3.60584        3.75324       -3.01180
S          4.17878        4.51040       -4.50781
C          3.46524        3.50266       -5.78093
C          3.68205        3.90506       -7.10953
C          3.17184        3.16671       -8.18033
C          2.43575        2.01347       -7.93814
C          2.21426        1.60249       -6.62569
C          2.72686        2.34258       -5.54437
C          2.46348        1.83311       -4.18263
O          1.91939        0.73780       -4.05188
C          2.85018        2.58140       -2.96754
C          2.44246        2.05213       -1.73013
H          3.73580       -0.94947       -0.53710
H          3.08091        0.75975        2.01530
H          4.02541        0.79562        0.54614
H          3.82859        4.34437        0.35260
H          4.52665        5.30488       -1.80513
H          4.25781        4.80358       -7.32581
H          3.35173        3.49301       -9.20183
H          2.03514        1.43182       -8.76479
H          1.63747        0.69591       -6.44580
H          1.80196        1.17289       -1.71347
