27

C          2.12094       -0.30908       -0.21800
C          1.28392       -1.54621       -0.03131
O          1.06562       -1.97834        1.10451
C          0.84728       -2.32396       -1.23755
C          0.28290       -1.52358       -2.38565
O          1.02633       -1.07919       -3.26255
N         -1.07351       -1.36504       -2.52425
C         -2.06543       -1.75123       -1.61138
C         -3.00349       -2.69843       -2.03660
C         -3.98576       -3.15987       -1.15920
C         -4.04928       -2.65997        0.13774
C         -3.16237       -1.66326        0.54105
C         -2.18228       -1.17115       -0.33726
C         -1.44032        0.06578        0.08969
H          2.02135        0.32193        0.67090
H          1.77976        0.27527       -1.07375
H          3.16676       -0.59285       -0.35044
H          1.72785       -2.85989       -1.61419
H          0.13642       -3.09859       -0.93284
H         -1.34387       -1.24868       -3.49482
H         -2.95603       -3.11700       -3.03863
H         -4.69700       -3.91484       -1.48408
H         -4.80743       -3.02165        0.82779
H         -3.25937       -1.24017        1.53962
H         -0.70009        0.39298       -0.64310
H         -2.14990        0.89257        0.20599
H         -0.93619       -0.09611        1.04681
