15

O          1.26417        0.66112       -0.20696
C          2.36079        0.16971       -0.02243
O          3.06928       -0.50559       -0.95055
C          3.10370        0.30171        1.23759
C          4.17103        1.20863        1.27598
C          4.88310        1.37048        2.46205
Br         6.32690        2.58724        2.52896
C          4.53878        0.64192        3.60075
C          3.46959       -0.25821        3.55510
C          2.74541       -0.43064        2.37211
Cl         1.46229       -1.58141        2.36380
H          3.91119       -0.88631       -0.63534
H          4.42491        1.79105        0.39262
H          5.09181        0.76918        4.52907
H          3.20654       -0.82157        4.44826
