53

C          2.89484       -0.23288       -0.08198
C          1.41563        0.01948       -0.18212
C          0.54726       -1.09019       -0.15454
C         -0.83935       -0.90112       -0.18969
N         -1.73415       -2.06401       -0.08678
O         -1.21487       -3.18819       -0.02649
O         -2.95473       -1.85244       -0.05441
C         -1.37102        0.38940       -0.28189
C         -0.50265        1.49113       -0.32953
C          0.89356        1.32497       -0.28711
N          1.73911        2.43746       -0.12595
N          1.93595        3.11762       -1.16574
C          2.70635        4.25756       -0.77315
C          2.15136        5.19131        0.12928
O          0.77974        5.19693        0.22216
C          2.96673        6.09433        0.81918
C          2.50849        7.04611        1.85853
O          2.89036        8.22009        1.77087
N          1.62323        6.71695        2.86094
C          1.00855        5.48445        3.13463
C         -0.39380        5.51014        3.17502
C         -1.11810        4.32149        3.19847
C         -0.44499        3.10598        3.23669
C          0.94852        3.08188        3.31301
C          1.69663        4.27112        3.29517
C          3.17591        4.18937        3.55282
C          4.32017        6.18153        0.47640
C          4.84134        5.43550       -0.58267
C          6.15188        5.68284       -1.01492
C          6.64666        5.06515       -2.15844
C          5.85470        4.15011       -2.84370
C          4.57926        3.82286       -2.36605
C          4.03174        4.47085       -1.23824
H          3.10202       -0.90831        0.75498
H          3.25551       -0.68728       -1.00947
H          3.46748        0.68127        0.09650
H          0.96777       -2.09200       -0.07254
H         -2.44664        0.55654       -0.29130
H         -0.91611        2.49835       -0.35256
H          0.49576        5.96923        0.73486
H          1.17043        7.54939        3.22365
H         -0.93540        6.44968        3.09243
H         -2.20342        4.34438        3.15315
H         -1.00306        2.17374        3.22352
H          1.45126        2.11973        3.38783
H          3.76943        4.46051        2.68231
H          3.44511        4.83755        4.39362
H          3.47284        3.17121        3.82982
H          4.95212        6.89923        1.00037
H          6.78154        6.40223       -0.49322
H          7.63813        5.32024       -2.52481
H          6.22344        3.70363       -3.76389
H          3.97923        3.11159       -2.93061
