74

O          1.31061       -0.36187        0.39739
C          2.52502       -0.16980        0.37411
N          3.31857       -0.83880       -0.52881
C          4.72132       -0.95246       -0.63001
C          5.53897       -0.95405        0.50481
C          6.92920       -0.98012        0.37841
C          7.51626       -0.97536       -0.88541
C          6.70990       -1.01030       -2.02824
C          7.34383       -0.93682       -3.36465
O          8.55143       -0.76466       -3.48137
C          6.50078       -1.08598       -4.55941
C          5.12401       -1.29400       -4.43229
C          4.31457       -1.55872       -5.53856
C          4.87166       -1.62747       -6.80780
C          6.24433       -1.36870       -6.96552
C          7.08589       -1.35419       -8.10157
C          6.84165       -1.62687       -9.45299
C          7.82561       -1.44316      -10.41810
N          7.50740       -1.47670      -11.79757
C          6.30043       -1.34743      -12.46908
O          6.24496       -1.49001      -13.68909
C          5.04077       -1.01805      -11.75927
C          4.90330        0.16350      -11.01677
C          3.76591        0.35491      -10.22603
C          2.75658       -0.61022      -10.20577
C          2.86700       -1.75731      -10.99384
C          4.00390       -1.95922      -11.77961
C          9.14147       -1.21537       -9.97354
C         10.30628       -1.43465      -10.86856
O         10.15734       -1.63091      -12.06663
C         11.65814       -1.49593      -10.26713
C         12.70034       -2.14573      -10.93531
C         13.97811       -2.16882      -10.36998
C         14.22711       -1.50301       -9.16813
C         13.18379       -0.87331       -8.49010
C         11.89174       -0.91944       -9.02132
C         10.75201       -0.46766       -8.20318
O         10.91081        0.16813       -7.18027
C          9.40405       -0.88245       -8.62997
C          8.35533       -0.96676       -7.70339
N          8.30358       -0.79529       -6.33408
C          7.03381       -1.06968       -5.85797
C          4.48647       -1.22852       -3.11259
O          3.26622       -1.33161       -3.03311
C          5.31816       -1.06891       -1.90118
C          3.09209        0.87499        1.25883
C          2.62637        0.95618        2.57385
C          3.14236        1.92555        3.43372
C          4.11364        2.81889        2.97865
C          4.54895        2.76830        1.65487
C          4.02232        1.81196        0.78730
H          2.78039       -1.16554       -1.33757
H          5.10841       -0.95634        1.50369
H          7.55317       -0.98488        1.26984
H          8.60140       -0.95358       -0.97442
H          3.24580       -1.72949       -5.42066
H          4.24734       -1.85785       -7.66717
H          5.85715       -1.99861       -9.69893
H          8.30762       -1.52912      -12.43480
H          5.69712        0.90574      -11.00810
H          3.67377        1.24606       -9.60886
H          1.88017       -0.46710       -9.57663
H          2.07350       -2.50111      -10.98507
H          4.09964       -2.86283      -12.37707
H         12.51675       -2.65746      -11.87824
H         14.78325       -2.70380      -10.86949
H         15.22911       -1.49817       -8.74445
H         13.37240       -0.38270       -7.53709
H          9.09138       -0.51859       -5.75284
H          1.86043        0.26753        2.92394
H          2.78246        1.98695        4.45742
H          4.51965        3.56808        3.65386
H          5.29130        3.47743        1.29703
H          4.34307        1.80414       -0.25077
