60

C          2.03639       -0.42248        1.32236
C          1.20223        0.00165        2.51837
C          0.97378        1.50810        2.67338
C          0.35492        2.30677        1.52481
C         -1.16861        2.41594        1.39533
N         -1.72985        3.56686        1.64694
C         -3.18561        3.36008        1.45170
C         -3.98393        3.88193        2.64762
C         -4.97820        4.89074        2.06823
C         -5.15155        4.45909        0.62344
C         -3.72766        4.09079        0.21623
C         -3.28921        1.87317        1.21127
O         -4.31216        1.21145        1.19093
N         -2.00385        1.44699        0.98448
C         -1.79228        0.08287        0.53994
C         -0.96277       -0.13115       -0.70889
C         -0.80830       -1.45218       -1.15889
C          0.12222       -1.76929       -2.15167
C          0.94117       -0.77890       -2.70711
C          1.93732       -1.11809       -3.73054
C          1.48739       -1.21651       -5.06174
C          2.35780       -1.53575       -6.10234
C          3.70065       -1.76598       -5.83416
C          4.17160       -1.67118       -4.52581
C          3.30617       -1.34401       -3.46363
C          3.88942       -1.27752       -2.13053
N          3.75991       -2.12846       -1.13232
N          4.64793       -1.72389       -0.16095
N          5.30220       -0.63489       -0.53734
N          4.82408       -0.35051       -1.75491
C          0.71790        0.55054       -2.33168
C         -0.25892        0.87328       -1.38219
H          1.45154       -0.43730        0.40742
H          2.40719       -1.44263        1.47186
H          2.89459        0.23575        1.16495
H          0.25819       -0.54200        2.53028
H          1.73629       -0.33786        3.41485
H          0.40623        1.68231        3.59335
H          1.97088        1.94034        2.84592
H          0.68043        3.34558        1.69967
H          0.82254        2.04270        0.58019
H         -4.52591        3.07519        3.15314
H         -3.35205        4.37261        3.39640
H         -4.54963        5.90005        2.10139
H         -5.92263        4.90825        2.61970
H         -5.58015        5.24491       -0.00453
H         -5.81012        3.58283        0.56842
H         -3.15129        4.99737        0.00106
H         -3.73594        3.47418       -0.69025
H         -1.34449       -0.46206        1.36984
H         -2.76722       -0.38562        0.35636
H         -1.39151       -2.25585       -0.71184
H          0.22357       -2.80471       -2.47059
H          0.43529       -1.04538       -5.28771
H          1.98015       -1.61371       -7.11833
H          4.37977       -2.03237       -6.63985
H          5.22272       -1.88365       -4.33404
H          5.19825        0.43451       -2.27096
H          1.31068        1.35056       -2.76993
H         -0.40458        1.92331       -1.14672
