17

O          1.03757       -0.21067        0.03777
C          2.24593       -0.04251        0.05767
O          2.83380        0.93647        0.76367
C          3.12854       -0.83923       -0.82233
C          2.68168       -1.01554       -2.14294
C          3.39677       -1.82400       -3.02841
Cl         2.84096       -2.02040       -4.64335
C          4.55505       -2.48146       -2.61304
C          5.00584       -2.32983       -1.30108
C          4.28651       -1.50952       -0.41758
N          4.80411       -1.36402        0.92361
O          4.98993       -2.39324        1.58003
O          5.06970       -0.20784        1.28328
H          3.81499        0.96020        0.81397
H          1.76368       -0.53006       -2.47483
H          5.10427       -3.11714       -3.30504
H          5.90602       -2.85100       -0.97802
