30

C          2.60805       -0.14846        0.20001
C          1.10762       -0.11569        0.18957
C          0.38768       -1.31323        0.21871
C         -1.00378       -1.29216        0.22413
C         -1.68398       -0.07384        0.17412
C         -0.98901        1.14218        0.09548
N         -1.72288        2.34685       -0.03068
O         -3.05801        2.28609        0.46498
C         -1.37598        3.61321       -0.48248
O         -2.11394        4.58729       -0.29238
C         -0.14485        3.84192       -1.26073
C          0.74025        4.81982       -0.77921
C          1.92487        5.08980       -1.46621
C          2.21890        4.39162       -2.63623
Cl         3.68552        4.71447       -3.47447
C          1.32829        3.44559       -3.14181
C          0.13233        3.18294       -2.46645
Cl        -0.97007        2.08007       -3.20819
C          0.41170        1.10385        0.13938
H          2.96882       -0.68714        1.08203
H          2.97813       -0.64549       -0.70257
H          3.03294        0.86031        0.22670
H          0.90764       -2.26834        0.24529
H         -1.56402       -2.22308        0.25428
H         -2.77173       -0.08752        0.15607
H         -3.32836        3.22791        0.41673
H          0.50453        5.37353        0.12853
H          2.60831        5.84723       -1.08885
H          1.55814        2.92476       -4.06841
H          0.99374        2.01776        0.17228
