13

C          1.07171       -0.07774       -0.05356
C          0.50771       -0.90334       -1.20327
O          0.95125       -2.25184       -1.06145
C         -1.02420       -0.88301       -1.23960
O         -1.53285        0.43158       -1.43262
H          0.71194       -0.45472        0.91013
H          0.80000        0.97811       -0.14181
H          2.16452       -0.15066       -0.03064
H          0.89700       -0.50973       -2.14926
H          1.92087       -2.24830       -1.14151
H         -1.38174       -1.50945       -2.06412
H         -1.45120       -1.30383       -0.32192
H         -1.50365        0.88296       -0.57182
