22

Cl        -2.68749        0.83645        0.19647
C         -1.19604       -0.01600        0.09327
C         -0.00259        0.69233        0.00470
C          1.19473       -0.00884       -0.08804
Cl         2.68151        0.85225       -0.18647
C          1.20482       -1.40544       -0.10065
C          0.00509       -2.13048       -0.00425
C          0.00957       -3.60847       -0.01055
C         -0.49918       -4.34409       -1.10461
Cl        -1.13509       -3.56498       -2.51727
C         -0.49787       -5.74356       -1.11002
C          0.02224       -6.43704       -0.02485
Cl         0.03090       -8.15653       -0.03404
C          0.53559       -5.74994        1.06757
C          0.52421       -4.35051        1.07638
Cl         1.15287       -3.57994        2.49693
C         -1.19857       -1.41275        0.09716
H         -0.00557        1.77872        0.00780
H          2.15510       -1.93058       -0.17812
H         -0.89792       -6.28816       -1.96226
H          0.94076       -6.29953        1.91417
H         -2.14600       -1.94353        0.17100
