20

O          0.98623        0.23420       -0.36237
C          2.15962        0.00728       -0.09312
O          2.87017       -0.93626       -0.76070
C          2.98796        0.81228        0.93081
O          2.82865        2.21736        0.71867
C          2.66022        0.43555        2.36654
C          2.27498        1.39812        3.31575
C          2.00640        1.03915        4.64041
C          2.11871       -0.28941        5.04275
C          2.50089       -1.24778        4.11230
O          2.62592       -2.56137        4.45756
C          2.77414       -0.89947        2.79104
H          3.81434       -0.99243       -0.51837
H          4.05239        0.61306        0.76566
H          2.44032        2.33550       -0.16763
H          2.18028        2.44505        3.03101
H          1.71009        1.80223        5.35605
H          1.90853       -0.55282        6.07427
H          2.34407       -2.66441        5.38185
H          3.06832       -1.68718        2.10225
