22

C          0.98011        0.03819        0.17849
O          0.34714        1.31549        0.24258
C          0.87223        2.15266        1.16616
O          1.81672        1.91351        1.90474
C          0.21390        3.47594        1.13609
C         -1.06957        3.73351        0.83142
C         -1.66477        5.11491        0.89755
C         -3.13209        4.83178        1.18077
C         -3.41407        3.57232        0.37663
C         -2.15066        2.72822        0.52371
H          0.60975       -0.47749       -0.71200
H          0.71448       -0.55274        1.05980
H          2.06687        0.13618        0.08931
H          0.87308        4.28164        1.44535
H         -1.21905        5.74322        1.67419
H         -1.55346        5.61124       -0.07339
H         -3.77850        5.66372        0.88602
H         -3.28656        4.64256        2.25032
H         -3.57374        3.82739       -0.67833
H         -4.30494        3.04484        0.73108
H         -1.96182        2.17456       -0.40029
H         -2.26118        2.02478        1.35645
