20

N          0.82635       -0.05921       -0.27183
C          0.38803       -1.40229        0.18488
C          0.99435       -1.83740        1.53085
C          0.57058       -1.02971        2.71471
C         -0.14943       -1.37462        3.84009
N         -0.30556       -0.29819        4.67264
C          0.31418        0.69339        4.07825
N          0.87491        0.29689        2.89838
C         -1.13941       -1.49732        0.23664
O         -1.79665       -2.52524        0.17954
O         -1.74825       -0.30451        0.43526
H          0.20821        0.63223        0.15837
H          1.78286        0.11974        0.01652
H          0.71754       -2.10411       -0.59044
H          0.72045       -2.88541        1.71360
H          2.08969       -1.81785        1.46343
H         -0.56524       -2.34196        4.09419
H          0.39163        1.70684        4.44891
H          1.39938        0.89006        2.27119
H         -2.69730       -0.53748        0.51155
