46

C          0.94726        1.04102        0.01211
C          0.82193        0.95134       -1.50163
N          0.96448       -0.40025       -2.03890
C          0.28577       -0.57661       -3.33467
C          0.68703        0.35267       -4.47514
C          2.27711       -1.07836       -1.95268
C          3.45344       -0.20244       -2.42965
C          2.69492       -1.68472       -0.56715
N          1.67685       -2.44387        0.23820
C          2.36648       -2.81862        1.45319
C          2.41579       -1.89562        2.51173
C          3.09146       -2.20686        3.69380
C          3.72152       -3.44019        3.83222
C          3.67799       -4.36983        2.79132
C          2.99966       -4.06958        1.60225
S          3.01301       -5.28051        0.28692
C          1.54339       -4.78512       -0.59805
C          0.85790       -5.75644       -1.34396
C         -0.34580       -5.44264       -1.97685
C         -0.87909       -4.16604       -1.85431
C         -0.19432       -3.19527       -1.12074
C          1.04312       -3.47337       -0.51939
H          0.34598        0.27234        0.50853
H          0.58291        2.01505        0.35628
H          1.98437        0.95329        0.34096
H         -0.18770        1.31512       -1.73585
H          1.51316        1.65611       -1.97669
H          0.38599       -1.61389       -3.67829
H         -0.79144       -0.44991       -3.16445
H          1.71137        0.17456       -4.80753
H          0.03671        0.17310       -5.33848
H          0.58071        1.40684       -4.20336
H          2.24694       -1.94385       -2.62890
H          3.61919        0.65234       -1.76517
H          4.38127       -0.78615       -2.44414
H          3.30738        0.17935       -3.44075
H          3.56469       -2.33356       -0.75626
H          3.07748       -0.86134        0.04927
H          1.91718       -0.93613        2.41313
H          3.12105       -1.48517        4.50641
H          4.24729       -3.68380        4.75283
H          4.17485       -5.32839        2.91359
H          1.24444       -6.76934       -1.41381
H         -0.87845       -6.20419       -2.54121
H         -1.83214       -3.92004       -2.31511
H         -0.63544       -2.20985       -0.99876
