15

C          2.65682        1.00324        0.03601
C          1.19843        0.68684        0.01257
C          0.22206        1.60283       -0.00397
N         -1.09479        1.23897       -0.02335
C         -1.52332       -0.05983       -0.02627
O         -2.71439       -0.35049       -0.04289
N         -0.53830       -1.00433       -0.00964
C          0.80466       -0.74814        0.00766
O          1.63892       -1.64708        0.01851
H          3.12578        0.58640        0.93327
H          3.15517        0.58470       -0.84441
H          2.83702        2.08349        0.03807
H          0.42383        2.66965       -0.00235
H         -1.82519        1.94199       -0.03564
H         -0.82601       -1.96968       -0.01273
