24

C          1.16974        0.00010        0.09161
C          0.62036        1.37972        0.28754
C         -0.58935        1.62571        0.81298
C         -1.19023        2.98471        0.98740
C         -0.17578        4.13540        0.94630
C          0.45134        4.36483        2.32781
C          0.91507        3.93551       -0.12326
C          0.42350        4.31274       -1.51978
C          1.47150        2.51742       -0.17112
O          2.58633        2.29292       -0.64578
H          1.19886       -0.24575       -0.97552
H          0.55620       -0.75738        0.59121
H          2.18369       -0.08215        0.49564
H         -1.21437        0.78816        1.11805
H         -1.73911        3.00811        1.93706
H         -1.93804        3.12333        0.19729
H         -0.73131        5.05478        0.71546
H          1.10566        5.24370        2.30880
H         -0.32573        4.55800        3.07584
H          1.04168        3.50656        2.66113
H          1.76099        4.59251        0.12014
H          0.10577        5.36031       -1.54737
H          1.22362        4.18941       -2.25853
H         -0.41691        3.68801       -1.83814
