22

Br        -3.23997       -0.08118        0.32074
C         -1.36021       -0.02060        0.13180
C         -0.72369        1.20335       -0.04475
C          0.66077        1.24163       -0.20721
C          1.40538        0.05519       -0.19180
Br         3.27871        0.20794       -0.49250
C          0.77680       -1.18993        0.01064
C          1.50806       -2.47012        0.04859
C          1.43412       -3.32487       -1.06861
C          2.10571       -4.54856       -1.07912
Br         1.96774       -5.67961       -2.58728
C          2.86992       -4.94528        0.01313
C          2.95017       -4.11854        1.13323
C          2.26627       -2.89624        1.15762
Br         2.38247       -1.87402        2.75909
C         -0.62334       -1.20574        0.16408
H         -1.29290        2.12944       -0.06460
H          1.15175        2.20106       -0.35254
H          0.84594       -3.02807       -1.93530
H          3.39952       -5.89476        0.00697
H          3.54310       -4.43783        1.98715
H         -1.13809       -2.15391        0.30974
