41

C          0.98307        0.11961        0.07090
C          0.37853        1.42560       -0.58176
C          0.91351        1.46855       -2.06996
C          1.02579        0.28106       -2.83588
C          1.50715        0.27036       -4.15366
C          1.84923        1.46368       -4.76349
O          2.31273        1.51023       -6.04283
C          1.72061        2.65284       -4.07194
C          1.26966        2.65173       -2.74305
C         -1.19740        1.27294       -0.59645
C         -2.07774        2.37312       -0.60368
C         -3.47360        2.22813       -0.62004
C         -4.03182        0.96381       -0.64825
O         -5.38025        0.77665       -0.65815
C         -3.21413       -0.15004       -0.67559
C         -1.82010        0.00400       -0.65942
C          0.88435        2.63197        0.34539
C          1.65454        2.41987        1.51692
C          2.08498        3.46626        2.34832
C          1.75434        4.77101        2.03346
O          2.14060        5.81730        2.81368
C          1.01223        5.03843        0.90021
C          0.58963        3.98620        0.07437
H          0.74966       -0.81557       -0.44182
H          0.60742       -0.02676        1.09241
H          2.08029        0.15596        0.09148
H          0.73711       -0.68432       -2.43163
H          1.59595       -0.67574       -4.67760
H          2.36788        0.60335       -6.38476
H          1.97524        3.59174       -4.55686
H          1.22597        3.62411       -2.27729
H         -1.72765        3.39330       -0.59517
H         -4.09437        3.11895       -0.61256
H         -5.81096        1.64673       -0.62600
H         -3.65332       -1.14284       -0.71309
H         -1.24653       -0.91552       -0.70502
H          1.95771        1.42901        1.84185
H          2.67216        3.23083        3.23040
H          2.63566        5.46949        3.57325
H          0.75574        6.06417        0.64960
H          0.01895        4.28033       -0.80014
