29

O          1.07446       -0.14143        0.13238
C          2.28479       -0.10187       -0.05802
C          2.97341        1.17352       -0.30552
C          4.28703        1.16011       -0.54112
N          5.01789       -0.01147       -0.54650
C          6.45853        0.00430       -0.73938
O          6.83021        0.92105       -1.79493
C          8.25187        1.08115       -1.62963
C          8.77326        2.22040       -2.49765
O         10.14421        2.48244       -2.23089
C          8.42579        1.27032       -0.12358
O          8.25130        2.64537        0.26263
C          7.30610        0.41504        0.49026
O          6.58544        1.18387        1.46461
C          4.43194       -1.23445       -0.24997
O          5.05193       -2.29334       -0.16933
N          3.07616       -1.21209       -0.05154
H          2.38212        2.07832       -0.28215
H          4.82942        2.08258       -0.72083
H          6.79264       -0.98481       -1.08015
H          8.73935        0.14447       -1.93304
H          8.67213        1.95227       -3.55476
H          8.19413        3.14022       -2.35958
H         10.18222        2.96889       -1.38540
H          9.41842        0.95971        0.21561
H          7.40762        2.94568       -0.13130
H          7.69551       -0.47901        0.98841
H          7.18088        1.90880        1.74209
H          2.62987       -2.09500        0.13872
