28

O          1.02984        0.59111        0.61741
C          2.18898        0.33635        0.35136
O          2.84997        0.82706       -0.72087
C          3.05480       -0.54849        1.15981
C          4.24297       -0.00045        1.67536
C          5.09540       -0.78367        2.44959
C          4.76287       -2.10825        2.71517
C          3.58074       -2.65177        2.20309
C          2.69971       -1.88769        1.41041
C          1.45752       -2.51688        0.91568
C          0.49468       -2.88609        1.88534
C         -0.70837       -3.50311        1.53768
C         -0.99003       -3.75980        0.20443
C         -0.06559       -3.40148       -0.77541
C          1.16146       -2.79003       -0.43982
C          2.05101       -2.51581       -1.60437
O          1.72254       -2.60638       -2.77534
O          3.32890       -2.22503       -1.30589
H          3.71838        0.40153       -0.86105
H          4.49441        1.04216        1.49074
H          6.01147       -0.36034        2.85469
H          5.41910       -2.72248        3.32776
H          3.34450       -3.69124        2.42896
H          0.68028       -2.67976        2.93947
H         -1.42510       -3.77222        2.30959
H         -1.92733       -4.23302       -0.07707
H         -0.30695       -3.60870       -1.81761
H          3.74384       -2.20401       -2.19523
