77

C          1.25132       -0.35691        0.02880
C          0.33105        0.61114       -0.71413
C          0.81237        0.76163       -2.16394
C         -1.14056        0.15033       -0.70384
C         -1.83939        0.06773        0.66831
C         -1.97896        1.38056        1.46073
C         -2.80515        2.45870        0.74188
C         -4.22385        2.73239        1.24203
C         -4.38076        3.82575        2.31344
C         -4.30487        5.32281        1.92863
O         -4.81556        5.66922        0.63865
P         -3.72678        6.25536       -0.42007
O         -3.27237        4.81314       -0.97621
C         -2.14839        4.65756       -1.81591
C         -0.78108        4.44295       -1.14268
C         -0.09716        5.56614       -0.34710
C         -0.53260        6.01507        1.05970
C         -0.51553        5.05097        2.25267
C          0.85617        4.56947        2.72160
C          1.57885        5.57663        3.62575
C          0.97082        5.73251        5.03944
C          1.29131        4.53696        5.94051
C          1.48484        7.01990        5.68812
O         -4.70687        6.75461       -1.61447
C         -4.17329        7.20004       -2.80288
C         -3.50687        8.42845       -2.92376
C         -2.89784        8.75994       -4.13984
C         -2.95508        7.88090       -5.21976
C         -3.65799        6.67748       -5.10531
C         -4.28506        6.35524       -3.90360
H          1.15856       -1.37521       -0.36361
H          1.02197       -0.37744        1.09796
H          2.29937       -0.05316       -0.07467
H          0.41363        1.59254       -0.23625
H          0.73368       -0.18463       -2.71092
H          0.21641        1.51032       -2.69694
H          1.85849        1.08500       -2.20049
H         -1.71903        0.80153       -1.36843
H         -1.19384       -0.84721       -1.16142
H         -2.84463       -0.34139        0.50845
H         -1.31154       -0.66446        1.29106
H         -2.41434        1.16217        2.44270
H         -0.96966        1.76384        1.65804
H         -2.26818        3.39461        0.80047
H         -2.87146        2.21271       -0.32009
H         -4.84449        3.00796        0.38230
H         -4.63832        1.79668        1.63173
H         -5.37861        3.67713        2.74469
H         -3.67464        3.64774        3.13475
H         -4.91862        5.87527        2.65430
H         -3.29050        5.69812        2.09782
H         -2.36105        3.72507       -2.36175
H         -2.08812        5.42487       -2.59006
H         -0.76835        3.52141       -0.56430
H         -0.10869        4.24144       -1.99056
H          0.95766        5.27794       -0.26758
H         -0.11275        6.45938       -0.98433
H          0.10669        6.86606        1.32394
H         -1.52515        6.45060        1.00748
H         -1.02522        5.55670        3.08176
H         -1.12304        4.17612        2.05977
H          0.73034        3.62476        3.26391
H          1.48064        4.33947        1.85230
H          2.62529        5.26133        3.72381
H          1.59647        6.54949        3.12138
H         -0.11894        5.81929        4.97706
H          2.37223        4.38924        6.03711
H          0.88463        4.69073        6.94666
H          0.85379        3.61319        5.55082
H          1.19426        7.89230        5.09281
H          1.06087        7.14872        6.68987
H          2.57596        7.01451        5.77673
H         -3.44456        9.11473       -2.08714
H         -2.36420        9.70499       -4.24449
H         -2.45751        8.12585       -6.15506
H         -3.70213        5.98841       -5.94113
H         -4.81513        5.41009       -3.79735
