30

C          0.94499        0.50336       -0.60264
C          0.67817       -0.36767        0.58685
O         -0.27137       -0.23007        1.34447
O          1.62406       -1.33801        0.66254
C          1.49840       -2.20964        1.78891
O          2.05380       -1.59013        2.95072
C          2.70375       -2.42674        3.78907
O          2.91288       -3.61471        3.64124
C          3.01639       -1.66508        5.00510
C          3.95230       -0.62498        4.95033
C          4.26457        0.08558        6.11176
C          3.63131       -0.22842        7.31732
C          2.68969       -1.25935        7.37124
C          2.38443       -1.97539        6.21143
O          1.55626       -3.10414        6.33556
C          0.18457       -2.89948        6.37913
C         -0.38329       -2.26482        5.14263
O         -0.51050       -3.33554        7.28987
H          0.41268        1.45115       -0.48640
H          0.60558       -0.00074       -1.51022
H          2.01396        0.72571       -0.66940
H          0.44689       -2.46181        1.97600
H          2.01604       -3.13688        1.52368
H          4.45507       -0.38196        4.01724
H          5.01264        0.87557        6.08245
H          3.89074        0.31722        8.22266
H          2.22740       -1.52196        8.31995
H         -0.13869       -2.88372        4.27618
H         -1.47450       -2.23619        5.22450
H         -0.02672       -1.24175        5.01681
