30

C          2.32788        0.07796       -1.57797
O          1.37629        1.05952       -1.17281
C          1.98874        2.11535       -0.44167
C          1.44921        2.32712        0.98303
O          1.20555        1.23185        1.85365
C          0.49169        0.09566        1.40015
C         -1.04522        0.07295        1.29134
O         -1.75909        0.93269        0.42105
C         -2.00290        2.28481        0.78061
C         -2.54227        2.66092        2.17106
O         -1.92989        1.98581        3.26359
C         -2.88155        1.24839        4.02760
H          1.78878       -0.79811       -1.94910
H          2.94996       -0.23677       -0.73202
H          2.95693        0.47714       -2.37724
H          3.07715        1.99855       -0.40793
H          1.79562        3.03474       -1.00924
H          2.20116        2.93952        1.49768
H          0.58988        2.98261        0.97898
H          0.94438       -0.33112        0.50950
H          0.71433       -0.66014        2.16605
H         -1.26786       -0.92620        0.89190
H         -1.49792        0.03823        2.27835
H         -1.14373        2.88730        0.52180
H         -2.75502        2.63994        0.06399
H         -2.34898        3.73059        2.32327
H         -3.63070        2.54059        2.18694
H         -3.51060        1.93404        4.60036
H         -3.50361        0.62149        3.37821
H         -2.34249        0.59399        4.71828
