17

O          1.01748        0.01543       -0.11507
C          2.23518        0.00410       -0.09605
O          2.99100       -0.72649       -0.94054
C          3.01755        0.75164        0.90168
C          2.57554        0.82032        2.22258
C          3.32134        1.54191        3.15587
C          4.48643        2.17838        2.73156
C          5.34175        2.96125        3.68025
O          6.37978        3.54299        3.42274
O          4.84923        2.97525        4.93738
N          4.92190        2.13443        1.44171
C          4.16988        1.44059        0.55567
H          3.93594       -0.81460       -0.71233
H          1.65690        0.32031        2.52350
H          2.99004        1.60166        4.18793
H          5.50334        3.51884        5.42754
H          4.53298        1.47519       -0.46846
