29

C          0.85493       -0.11116        0.02799
C          0.36476       -0.05617        1.46597
C         -0.39722       -1.33051        1.90162
C         -0.28991       -1.29809        3.43177
C          0.45855        0.02048        3.70022
C          1.46372        0.00135        2.53581
C         -0.43277        1.26341        3.37114
C         -1.82302        1.22671        4.02053
C          0.26411        2.54840        3.87238
C         -0.43669        1.23258        1.81050
O         -1.71615        1.27239        1.20905
H          0.67090        0.83015       -0.50061
H          0.35099       -0.90095       -0.53926
H          1.93161       -0.30636       -0.01825
H          0.09084       -2.23606        1.52054
H         -1.43580       -1.35417        1.56115
H         -1.26074       -1.37478        3.92575
H          0.31040       -2.14935        3.77598
H          0.91449        0.05424        4.69302
H          2.09423        0.89239        2.46874
H          2.10877       -0.88519        2.54257
H         -1.73994        1.13030        5.10898
H         -2.37615        2.14946        3.81008
H         -2.44194        0.39970        3.66292
H          1.27113        2.66941        3.46163
H         -0.30965        3.43825        3.58922
H          0.35588        2.54127        4.96446
H          0.10766        2.10354        1.42295
H         -2.24699        0.52760        1.53437
