40

C          1.27660       -0.02342       -0.21554
C          0.58673        1.18829       -0.84421
C          0.96879        1.29305       -2.32262
C         -0.94608        1.11988       -0.69973
C         -1.46842        1.14085        0.74333
C         -1.08116        2.37968        1.55822
C         -1.58506        3.71035        0.98930
C         -3.11201        3.86266        0.95143
C         -3.79413        3.85976        2.32668
C         -3.37813        5.02312        3.19455
C         -2.53325        4.82858        4.29649
C         -2.10505        5.91483        5.06357
C         -2.52742        7.19737        4.72882
O         -2.12236        8.28732        5.44118
C         -3.37526        7.40823        3.64971
C         -3.80198        6.32337        2.88360
H          0.90514       -0.95898       -0.64747
H          1.11366       -0.05886        0.86579
H          2.35886        0.01698       -0.37875
H          0.96088        2.09265       -0.35114
H          0.62037        0.42245       -2.88805
H          0.53077        2.19008       -2.77319
H          2.05586        1.36108       -2.43882
H         -1.40157        1.94690       -1.25770
H         -1.31087        0.20219       -1.17969
H         -2.56036        1.04625        0.71931
H         -1.11219        0.24995        1.27323
H         -1.44956        2.25157        2.58195
H          0.00984        2.43072        1.64926
H         -1.15092        4.52715        1.57795
H         -1.19550        3.84764       -0.02590
H         -3.34755        4.79970        0.43094
H         -3.54810        3.06486        0.33967
H         -4.88180        3.90891        2.18649
H         -3.61107        2.91122        2.84469
H         -2.19051        3.82932        4.55577
H         -1.44320        5.74147        5.90549
H         -1.52043        7.98976        6.14220
H         -3.69749        8.41472        3.39903
H         -4.45806        6.49917        2.03451
