34

C          0.92844       -0.47046       -0.08910
C          1.12928       -0.52225        1.41116
O          1.44724        0.72324        1.99695
P          2.62129        1.69462        1.44873
O          2.41263        2.06493        0.00478
S          2.58595        3.43801        2.63358
C          0.93101        4.03683        2.34711
C          0.75289        5.40044        2.08134
C         -0.52949        5.94000        1.93314
C         -1.64972        5.11990        2.04131
C         -1.48769        3.76628        2.31476
C         -0.20639        3.23533        2.48776
S          4.46540        0.72112        1.75985
C          5.32187        1.12475        0.25549
C          5.82685        0.07955       -0.52783
C          6.52448        0.34716       -1.70804
C          6.73155        1.66460       -2.10956
C          6.25594        2.71206       -1.32305
C          5.56341        2.44445       -0.13811
H          0.33550        0.40151       -0.38197
H          0.42261       -1.37462       -0.44014
H          1.89297       -0.41038       -0.60253
H          0.18632       -0.83787        1.87165
H          1.88433       -1.26382        1.68626
H          1.61129        6.06434        2.00405
H         -0.65270        7.00286        1.74261
H         -2.64706        5.53656        1.92786
H         -2.35727        3.12118        2.41367
H         -0.13327        2.18937        2.76100
H          5.68362       -0.95574       -0.22660
H          6.90480       -0.47220       -2.31227
H          7.26592        1.87486       -3.03260
H          6.42182        3.74095       -1.63318
H          5.21320        3.28091        0.46030
