26

C          0.97104        0.22259       -0.14145
C          0.57390       -1.10655       -0.76546
C          1.07694       -2.32287        0.02046
C          0.55040       -2.45410        1.46758
C         -0.99255       -2.44730        1.56574
C         -1.69758       -3.57104        0.81755
C          1.12906       -3.70496        2.16835
C          2.63931       -3.65563        2.36142
H          0.48269        0.37510        0.82532
H          0.67512        1.04856       -0.79608
H          2.05446        0.27931        0.00510
H         -0.51331       -1.14638       -0.88925
H          0.99849       -1.15353       -1.77586
H          0.82729       -3.22890       -0.54484
H          2.17212       -2.27161        0.03666
H          0.90167       -1.58205        2.03462
H         -1.28064       -2.50321        2.62338
H         -1.38077       -1.48749        1.20638
H         -1.40862       -4.55354        1.20147
H         -2.78150       -3.47618        0.94096
H         -1.48431       -3.53997       -0.25454
H          0.66680       -3.80567        3.15840
H          0.87753       -4.61132        1.60624
H          2.94507       -2.72744        2.85376
H          2.96373       -4.49360        2.98702
H          3.16933       -3.73588        1.40799
