18

C          1.01460        0.06445        0.07501
C          0.50005        1.47021        0.34453
N          1.03149        2.38967       -0.66862
N          0.48642        3.71392       -0.43314
C          1.00496        4.64713       -1.44411
C          0.44253        4.39060       -2.83697
H          0.69815       -0.28873       -0.91247
H          0.62102       -0.63106        0.82316
H          2.10815        0.02489        0.11944
H         -0.59590        1.45655        0.31329
H          0.80924        1.78434        1.34863
H          2.05310        2.39849       -0.58639
H         -0.53585        3.70317       -0.50591
H          0.71942        5.65984       -1.13685
H          2.10125        4.62884       -1.46519
H         -0.65217        4.41824       -2.83370
H          0.79574        5.16025       -3.53086
H          0.76089        3.41864       -3.22761
