92

C          1.47844        0.20332        0.13013
C          0.70195       -0.39081        1.30490
C          1.09383        0.30426        2.60880
C         -0.82000       -0.29090        1.08587
C         -1.35028       -1.08674       -0.11498
C         -0.96832       -2.56887       -0.11577
C         -1.41833       -3.32214        1.13589
C         -2.92809       -3.56538        1.19166
C         -3.42245       -4.59618        0.16910
C         -2.79515       -5.98492        0.32268
O         -3.28666       -6.57386        1.52953
C         -2.61342       -6.39568        2.68741
O         -1.43430       -6.08481        2.78143
C         -3.51802       -6.62655        3.87841
C         -5.00616       -6.31292        3.64543
C         -5.74062       -7.16086        2.59235
C         -5.38818       -8.64829        2.62248
C         -5.87882       -9.32360        3.89752
C         -7.39893       -9.48707        3.90828
C         -7.93896      -10.47248        2.85721
C         -7.14404      -11.77305        2.64784
C         -7.07657      -12.69127        3.84888
O         -6.97531      -13.90729        3.76811
O         -7.14898      -11.98583        4.99906
C         -7.55698      -12.63382        6.20677
C         -9.07737      -12.50406        6.33815
C         -9.87024      -13.32381        5.31250
C         -9.59706      -14.82765        5.38671
C        -10.17443      -15.49086        6.63704
C        -11.69895      -15.62505        6.61655
C        -12.25588      -16.40205        5.41542
C        -11.65136      -17.80562        5.21837
C        -11.96883      -18.72430        6.39789
C        -12.15802      -18.41955        3.91329
H          1.18214        1.24118       -0.05444
H          1.30624       -0.36739       -0.78789
H          2.55549        0.18602        0.32528
H          0.99343       -1.44200        1.41151
H          0.80519        1.35987        2.60200
H          0.60634       -0.17844        3.46301
H          2.17557        0.24518        2.76970
H         -1.34158       -0.62020        1.99313
H         -1.10286        0.76089        0.95212
H         -2.44176       -0.98774       -0.14441
H         -0.98849       -0.63363       -1.04481
H         -1.37979       -3.04296       -1.01348
H          0.11857       -2.66838       -0.21248
H         -0.87222       -4.26760        1.17195
H         -1.11194       -2.79119        2.04273
H         -3.19902       -3.88833        2.20267
H         -3.46991       -2.62512        1.04016
H         -4.50988       -4.68432        0.29549
H         -3.25390       -4.22868       -0.84763
H         -3.14916       -6.62083       -0.49603
H         -1.70366       -5.99020        0.27735
H         -3.37110       -7.64999        4.23510
H         -3.16836       -5.95475        4.67257
H         -5.52672       -6.42908        4.60456
H         -5.11843       -5.25740        3.36895
H         -6.81858       -7.01481        2.71841
H         -5.54660       -6.77390        1.58713
H         -5.81351       -9.13577        1.73856
H         -4.30682       -8.79669        2.53279
H         -5.37971      -10.29264        4.00354
H         -5.57323       -8.75145        4.78019
H         -7.71291       -9.78922        4.91226
H         -7.89420       -8.52079        3.76596
H         -8.97525      -10.71593        3.12181
H         -7.98975       -9.95235        1.89217
H         -7.64986      -12.33444        1.85207
H         -6.12535      -11.57374        2.30320
H         -7.18880      -13.66057        6.26720
H         -7.08679      -12.08005        7.02668
H         -9.38165      -12.77560        7.35348
H         -9.35502      -11.45077        6.19764
H        -10.93932      -13.12511        5.44735
H         -9.64216      -12.97056        4.30105
H         -9.98296      -15.30238        4.47904
H         -8.52324      -15.02754        5.36739
H         -9.71965      -16.48136        6.74969
H         -9.87703      -14.93613        7.53358
H        -12.01833      -16.10815        7.54681
H        -12.15651      -14.62883        6.62996
H        -13.34354      -16.48483        5.53499
H        -12.10680      -15.80938        4.50430
H        -10.56177      -17.73090        5.12605
H        -13.04854      -18.78927        6.56823
H        -11.59082      -19.73578        6.21779
H        -11.50087      -18.36270        7.31897
H        -11.85368      -17.80735        3.05719
H        -11.73952      -19.42118        3.76790
H        -13.24945      -18.49940        3.90581
