22

Cl        -2.08802       -0.00065       -0.06403
C         -0.36855       -0.00011       -0.03006
C          0.32529       -1.20661       -0.04914
C          1.72358       -1.20479       -0.02254
C          2.44462        0.00072        0.02611
C          3.91467        0.00102        0.05624
C          4.61560        0.63311        1.09332
C          6.01660        0.63355        1.12594
Cl         6.77087        1.44135        2.45818
C          6.75188        0.00045        0.11539
Cl         8.48643       -0.00019        0.15175
C          6.05909       -0.63220       -0.92503
Cl         6.86793       -1.44049       -2.22457
C          4.65794       -0.63117       -0.95086
C          1.72152        1.20584        0.04571
C          0.32327        1.20677        0.01651
H         -0.21222       -2.15068       -0.08213
H          2.24751       -2.15917       -0.02805
H          4.06375        1.12254        1.89536
H          4.13979       -1.12049       -1.77513
H          2.24424        2.16050        0.07225
H         -0.21572        2.15053        0.02814
