18

C          1.00457       -0.11696        0.02168
C          0.50784       -0.72864       -1.27902
C          0.96064       -2.15390       -1.42353
C          0.11809       -3.19314       -1.52019
C          0.56925       -4.55852       -1.66288
C         -0.28155       -5.58824       -1.76211
C          0.23106       -6.96415       -1.90434
O         -0.52926       -7.91968       -1.99765
H          0.63011       -0.67160        0.88872
H          0.66032        0.91867        0.10779
H          2.09899       -0.11333        0.06559
H         -0.58556       -0.65782       -1.31528
H          0.89383       -0.14894       -2.12521
H          2.03667       -2.31332       -1.45750
H         -0.95640       -3.01852       -1.49042
H          1.64451       -4.72465       -1.68661
H         -1.35949       -5.47985       -1.74462
H          1.32712       -7.08191       -1.92131
