37

C          0.89791       -0.15916       -0.20315
C          0.18426       -0.67384        0.80911
C         -1.33697       -0.68819        0.95647
C         -1.73583       -2.17073        1.10552
C         -1.74302        0.12040        2.21782
C         -1.17824        1.54569        2.35651
C         -1.59921        2.52455        1.29526
C         -2.38720        3.60485        1.46335
C         -2.66904        4.55282        0.32955
C         -3.03234        3.96306        2.77269
O         -1.90570       -0.14944       -0.26370
C         -3.25177       -0.13567       -0.44986
O         -4.09840       -0.49421        0.35681
C         -3.58670        0.34148       -1.83996
C         -3.31960        1.82108       -2.00982
H          0.42672        0.32162       -1.05419
H          1.98284       -0.20258       -0.19340
H          0.73705       -1.12986        1.63052
H         -1.20176       -2.65478        1.93172
H         -2.80455       -2.29354        1.30370
H         -1.52199       -2.72772        0.18510
H         -2.83374        0.18252        2.29784
H         -1.41236       -0.43676        3.10607
H         -1.46114        1.91622        3.34886
H         -0.08234        1.51477        2.37297
H         -1.15971        2.34801        0.31496
H         -3.73909        4.55674        0.09673
H         -2.36854        5.57000        0.60042
H         -2.12803        4.28219       -0.58292
H         -3.51372        3.09281        3.22993
H         -2.28783        4.37035        3.46411
H         -3.81008        4.72209        2.63570
H         -3.02116       -0.25094       -2.56676
H         -4.64828        0.13676       -2.02009
H         -2.25350        2.04474       -1.90495
H         -3.64029        2.15851       -2.99989
H         -3.86471        2.40047       -1.25890
