26

O          0.96790        0.19679       -0.05313
C          2.19212        0.16155       -0.06692
N          2.99534        1.28810       -0.04354
C          4.29866        1.16695       -0.10298
N          5.04524        2.31740       -0.04680
C          6.44109        2.44178       -0.07977
C          7.11494        2.99350        1.01478
C          8.51113        3.00819        1.05500
C          9.24671        2.48333       -0.00613
C          8.58821        1.94946       -1.11087
C          7.19336        1.92475       -1.14339
N          5.00143       -0.01410       -0.17123
C          4.27843       -1.12674       -0.12517
N          4.74312       -2.39765       -0.09551
C          3.64724       -3.13187       -0.05307
N          2.51071       -2.35937       -0.05017
C          2.92303       -1.05992       -0.08364
H          4.53508        3.12535        0.28906
H          6.55693        3.37975        1.86431
H          9.02434        3.41561        1.92234
H         10.33319        2.48737        0.02952
H          9.15797        1.54505       -1.94369
H          6.69008        1.50395       -2.01202
H          6.00332       -0.03178       -0.04952
H          3.61111       -4.21314       -0.02229
H          1.55283       -2.68376       -0.01730
