14

N          1.21136        0.06708        0.08543
C          2.36894        0.09524        0.00821
C          3.79641        0.07650       -0.08897
C          4.49432        1.29195       -0.11794
C          5.88776        1.30246       -0.21232
C          6.59007        0.10008       -0.27683
C          5.90147       -1.11284       -0.24787
C          4.50991       -1.12557       -0.15550
O          3.92671       -2.36372       -0.13699
H          3.95832        2.23826       -0.06753
H          6.42562        2.24756       -0.23545
H          7.67508        0.10525       -0.35016
H          6.44981       -2.05046       -0.29819
H          2.95731       -2.29398       -0.08639
