14

N          0.85238       -0.20281        0.05851
C          0.22035       -0.34202       -1.19673
C         -0.93780        0.39672       -1.50802
Cl        -1.49868        1.64434       -0.44655
C         -1.65253        0.16809       -2.68612
C         -1.23585       -0.83420       -3.55624
Cl        -2.11393       -1.12182       -5.00743
C         -0.12177       -1.61267       -3.25939
C          0.58690       -1.37697       -2.07903
Cl         1.95883       -2.37783       -1.74140
H          0.73564        0.71977        0.47195
H          1.81438       -0.53473        0.06792
H         -2.53283        0.76238       -2.91672
H          0.18921       -2.40425       -3.93612
