33

N          0.83082       -0.12459        0.05302
C          0.21502       -0.81764       -0.97897
N          0.63501       -2.07454       -1.21694
C          0.03181       -2.77303       -2.19695
N         -0.97637       -2.38340       -2.99999
C         -1.33997       -1.11077       -2.75250
C         -0.80494       -0.28016       -1.77620
C         -1.50360        0.95499       -1.85655
C         -2.43853        0.84261       -2.86367
N         -2.34675       -0.42728       -3.39176
C         -3.20990       -0.94164       -4.43755
O         -2.43261       -1.33815       -5.58240
C         -3.33764       -2.10888       -6.39567
C         -2.57750       -2.96469       -7.40342
O         -3.46319       -3.82407       -8.11350
C         -4.24179       -2.88323       -5.42827
O         -3.84312       -4.25395       -5.29355
C         -4.12389       -2.13389       -4.09582
O         -3.65838       -3.05836       -3.10294
H          0.85082        0.87903       -0.05668
H          1.70227       -0.57053        0.31478
H          0.40205       -3.78205       -2.35334
H         -1.34529        1.82807       -1.23712
H         -3.16260        1.55653       -3.23547
H         -3.83697       -0.10559       -4.77706
H         -3.96321       -1.39001       -6.94245
H         -2.06621       -2.32198       -8.12783
H         -1.80119       -3.56780       -6.91981
H         -3.74858       -4.49609       -7.46008
H         -5.27305       -2.88718       -5.79607
H         -3.84556       -4.43272       -4.32774
H         -5.09754       -1.76799       -3.75387
H         -2.67468       -3.05602       -3.13399
