49

C         -0.43060        0.18087        0.23132
O          0.59664        1.11976        0.55794
C          1.03968        0.96714        1.84447
C          0.14401        1.15214        2.90162
C          0.55615        0.99305        4.23174
C          1.88391        0.67271        4.55249
C          2.34646        0.33073        5.95331
C          1.52914        0.55856        7.00941
C          1.60839       -0.09078        8.34593
O          0.67304       -0.83719        8.64338
N          2.67166        0.13734        9.18656
C          3.49390        1.34935        9.19202
C          4.89732        1.06020        9.74174
O          4.83434        0.42790       11.03015
C          4.13117       -0.82040       10.93589
C          2.69782       -0.60153       10.45145
C          3.65241       -0.34174        6.19814
C          3.72669       -1.70989        6.48483
C          4.96944       -2.32066        6.67450
C          6.13924       -1.56978        6.56289
Cl         7.66710       -2.32591        6.79020
C          6.08127       -0.21002        6.26835
C          4.84008        0.40349        6.09304
C          2.77389        0.54686        3.46712
C          2.37778        0.69132        2.12443
O          3.41700        0.50978        1.25151
C          3.13091        0.40351       -0.13398
H         -1.40256        0.52834        0.59467
H         -0.20916       -0.82024        0.62011
H         -0.48420        0.11189       -0.85944
H         -0.89212        1.41355        2.70299
H         -0.21224        1.09584        4.99171
H          0.56308        1.03522        6.89598
H          2.98339        2.05823        9.85558
H          3.54285        1.81240        8.20546
H          5.46540        0.41200        9.06752
H          5.45599        1.99376        9.85669
H          4.12519       -1.28082       11.92875
H          4.67706       -1.48989       10.25965
H          2.13902       -0.00154       11.17963
H          2.19239       -1.56753       10.34648
H          2.81945       -2.30609        6.56082
H          5.01685       -3.38234        6.90064
H          6.99191        0.37537        6.17284
H          4.80149        1.46539        5.85559
H          3.81723        0.28866        3.63243
H          2.43164       -0.41384       -0.33613
H          2.78003        1.35629       -0.54078
H          4.06758        0.15875       -0.64508
