25

O          1.37131        0.28809       -0.79881
C          2.42919        0.19438       -0.18344
C          3.11727       -1.13746       -0.00177
C          4.03234       -1.22225        1.20584
C          4.92182        0.01096        1.25241
C          5.89854       -0.01787        2.43006
C          6.72072        1.26924        2.49084
C          5.83285        2.51195        2.51831
C          4.83011        2.52122        1.36765
C          4.00884        1.23172        1.33175
O          3.10537        1.29826        0.21564
H          2.34816       -1.91344        0.08142
H          3.69036       -1.32881       -0.91664
H          3.43048       -1.29042        2.12098
H          4.63628       -2.13514        1.14972
H          5.49830        0.05065        0.31711
H          5.34981       -0.14264        3.37219
H          6.57288       -0.87728        2.33788
H          7.36257        1.25514        3.37889
H          7.38412        1.31725        1.61841
H          5.29072        2.54831        3.47132
H          6.45639        3.41183        2.47196
H          4.16159        3.38579        1.45873
H          5.35598        2.65162        0.41289
H          3.39186        1.19102        2.23983
