26

N          1.03063        0.23773        0.13484
C          0.30412        1.08547       -0.64952
O         -0.91937        1.06733       -0.64628
C          1.03711        2.09835       -1.43899
C          0.51251        3.40438       -1.43572
C          1.12758        4.49090       -2.10616
N          0.37457        5.68546       -2.02891
C          0.97296        6.94507       -1.60005
C          0.45280        6.77118       -2.99645
C          2.33210        4.19915       -2.76591
N          3.11597        5.20018       -3.45256
O          3.79353        5.96492       -2.75574
O          3.11154        5.15873       -4.68946
C          2.86187        2.89442       -2.82478
C          2.18940        1.85177       -2.17741
N          2.69691        0.50549       -2.35941
O          3.90966        0.34216       -2.17457
O          1.89801       -0.36887       -2.70942
H          0.50240       -0.43576        0.67907
H          2.03268        0.24369        0.26137
H         -0.41925        3.59095       -0.89443
H          0.35668        7.48439       -0.89143
H          2.03078        6.94243       -1.39541
H          1.13442        6.68886       -3.82508
H         -0.51655        7.18943       -3.23890
H          3.77452        2.69798       -3.38879
