16

S         -2.00717        0.09691       -0.02472
C         -0.35292        0.09670       -0.01300
N          0.41957        1.22554       -0.02715
N          1.77496        1.06162        0.01428
C          2.05671       -0.20516        0.04676
S          3.71318       -0.73391        0.16356
S          3.70495       -2.76564       -0.17177
C          5.37022       -3.27404       -0.21096
N          5.66754       -4.53529       -0.15393
N          7.02268       -4.68771       -0.22380
C          7.77890       -3.55338       -0.33711
S          9.43036       -3.53964       -0.43434
S          6.71664       -2.17585       -0.36258
S          0.69252       -1.29234        0.02691
H          0.02823        2.16258       -0.03169
H          7.42386       -5.61995       -0.19871
