19

O          1.05200       -0.09327        0.02902
C          2.26863       -0.07545       -0.01119
O          3.02244       -1.07724       -0.50235
C          3.06167        1.04951        0.53361
C          4.19578        1.53426       -0.13730
C          4.90348        2.62434        0.38175
C          4.46922        3.22657        1.57276
N          5.17013        4.41088        2.03375
O          6.40459        4.34974        2.07557
O          4.48106        5.40699        2.27968
C          3.34336        2.74116        2.23788
N          2.93859        3.27733        3.52271
O          3.81529        3.35243        4.39154
O          1.74222        3.54992        3.66843
C          2.62371        1.65638        1.71852
H          3.97905       -1.02517       -0.32107
H          4.51135        1.09947       -1.08493
H          5.76975        3.01055       -0.15551
H          1.73602        1.27792        2.22699
