29

C          1.53661       -0.46125       -0.80959
C          0.77928       -1.72900       -1.17589
C          0.74201       -2.79869       -0.08508
C         -0.12508       -2.58775        1.16402
O         -1.42040       -2.05231        0.95941
C         -1.56461       -0.63530        0.85749
C         -1.47105        0.18226        2.15654
O         -0.27533        0.94041        2.35596
C          0.86174        0.31634        2.94572
C          0.69381       -0.17860        4.38502
O         -0.19982       -1.28043        4.50103
H          1.11873        0.04437        0.06032
H          1.49860        0.24590       -1.64558
H          2.58736       -0.67581       -0.59603
H         -0.23557       -1.49317       -1.51183
H          1.28240       -2.16139       -2.05016
H          0.38069       -3.71543       -0.56920
H          1.76710       -3.02044        0.23982
H         -0.28457       -3.58682        1.59194
H          0.40327       -2.06371        1.94802
H         -0.94768       -0.21473        0.07018
H         -2.59806       -0.52342        0.50648
H         -2.22950        0.96954        2.05464
H         -1.76440       -0.38961        3.03306
H          1.25709       -0.45309        2.28853
H          1.64268        1.08579        2.96414
H          1.66118       -0.52687        4.75884
H          0.34238        0.62841        5.03529
H         -1.02776       -0.93540        4.87129
