55

C          1.69349       -0.34675        0.33782
N          1.35280       -0.15930       -1.13594
C          1.81722       -1.44654       -1.85969
C         -0.15388       -0.07178       -1.37815
C         -0.91798        1.10156       -0.77437
C         -0.92153        2.43861       -1.50881
N         -0.97354        2.29159       -2.95858
S         -0.61949        3.61650       -3.93435
O          0.71275        4.00969       -3.54765
O         -0.91807        3.20201       -5.28709
C         -1.77880        4.89655       -3.43879
C         -3.24565        4.79430       -3.89585
C         -4.14380        3.84066       -3.09211
F         -3.65528        3.82356       -1.82429
F         -5.38667        4.38158       -2.98361
C         -4.26026        2.43370       -3.67854
F         -5.08354        2.42472       -4.75805
F         -3.04034        2.10448       -4.18589
C         -4.66017        1.35858       -2.67083
F         -4.04435        1.58607       -1.47346
F         -5.98642        1.37148       -2.42229
C         -4.16823        0.00476       -3.16744
F         -4.65080       -0.26448       -4.40304
F         -2.79963        0.08401       -3.30368
C         -4.45760       -1.12489       -2.20985
F         -3.99052       -0.81049       -0.96328
F         -5.79005       -1.32791       -2.08135
C         -3.73583       -2.37186       -2.69711
F         -4.09343       -2.73983       -3.94360
F         -2.38517       -2.18013       -2.70864
F         -3.95173       -3.42839       -1.87944
C          2.16139        1.02425       -1.80719
C          2.42645        2.31736       -1.04601
O          3.20032        3.18959       -1.40425
O          1.75619        2.47661        0.10975
H          1.32211       -1.32672        0.65524
H          1.20420        0.41509        0.94247
H          2.78015       -0.30053        0.44934
H          1.25637       -2.29491       -1.45359
H          1.61558       -1.33206       -2.92892
H          2.88715       -1.58086       -1.67687
H         -0.31753       -0.14398       -2.45895
H         -0.56969       -0.98897       -0.93779
H         -1.96453        0.77335       -0.73681
H         -0.65216        1.26656        0.27373
H         -1.79570        2.99047       -1.16587
H         -0.06350        3.04595       -1.23530
H         -1.64835        1.66889       -3.41401
H         -1.68594        5.03056       -2.35704
H         -1.35706        5.80473       -3.88954
H         -3.66824        5.79976       -3.76398
H         -3.31507        4.58413       -4.96805
H          3.15345        0.60804       -2.01594
H          1.65797        1.24248       -2.75309
H          2.03977        3.37189        0.41306
