22

Cl         2.97468        1.16505        0.33647
C          1.27014        0.91653        0.17226
C          0.45743        2.05185        0.23281
C         -0.93735        1.95755        0.08884
C         -1.74797        3.19671        0.17472
C         -2.45938        3.51557        1.35346
Cl        -2.39624        2.50315        2.75875
C         -3.23384        4.67585        1.44402
C         -3.30003        5.55626        0.36788
C         -2.59726        5.27861       -0.80510
Cl        -2.71163        6.43683       -2.08457
C         -1.83047        4.10393       -0.91079
Cl        -0.97561        3.75837       -2.38883
C         -1.50485        0.68102       -0.12415
Cl        -3.22727        0.55224       -0.35913
C         -0.69010       -0.47065       -0.16107
Cl        -1.41200       -2.04081       -0.38179
C          0.70417       -0.35121       -0.01453
Cl         1.72748       -1.75635       -0.06503
H          0.91908        3.02765        0.38593
H         -3.78471        4.90135        2.35506
H         -3.89965        6.46067        0.45172
