22

C          0.74322        0.07819        0.10855
C          0.51091       -1.33500       -0.39721
O          1.00234       -2.32178        0.52163
C          2.35108       -2.49839        0.54390
O          3.13454       -1.81182       -0.10349
N          2.74505       -3.53548        1.37321
C          1.81296       -4.38321        2.09851
C          4.16890       -3.77543        1.57308
C          4.85627       -4.35500        0.34543
H          0.35219        0.19712        1.12361
H          0.25740        0.80504       -0.54889
H          1.80974        0.31917        0.14758
H         -0.56631       -1.50820       -0.49316
H          0.94929       -1.48704       -1.39027
H          2.02081       -5.42791        1.84832
H          1.96559       -4.22975        3.17117
H          0.76940       -4.16878        1.85908
H          4.64090       -2.82367        1.84269
H          4.29864       -4.45752        2.42122
H          4.84621       -3.65065       -0.49215
H          5.90276       -4.58175        0.57219
H          4.36514       -5.27477        0.01365
