36

C          1.08659       -0.18552        0.13286
N          0.73428       -1.54032       -0.24948
C         -0.41957       -2.13825        0.40971
C          1.29898       -2.02281       -1.42973
O          2.25653       -1.50073       -1.98490
S          0.51941       -3.42989       -2.13063
C          0.87454       -3.19252       -3.89598
C          0.18372       -1.98078       -4.53098
C          0.96882       -0.65709       -4.60806
C          2.43614       -0.71833       -5.06675
O          2.58453       -0.54036       -6.48588
C          2.41444       -1.70674       -7.17451
C          3.47230       -2.59084       -7.36899
C          3.25368       -3.77411       -8.07861
C          1.98344       -4.06503       -8.58223
C          0.94221       -3.15266       -8.42054
C          1.17115       -1.95545       -7.74853
H          0.83917       -0.00561        1.18259
H          0.53092        0.51196       -0.50199
H          2.15781       -0.01508       -0.00850
H         -1.31177       -1.98874       -0.20458
H         -0.24523       -3.20874        0.55612
H         -0.57212       -1.68795        1.39456
H          1.95005       -3.23011       -4.07177
H          0.46837       -4.08849       -4.38130
H         -0.10071       -2.26824       -5.54625
H         -0.77584       -1.78355       -4.03439
H          0.41802        0.01819       -5.27640
H          0.93166       -0.18806       -3.61956
H          2.94696        0.14565       -4.62338
H          2.98886       -1.59090       -4.70740
H          4.46080       -2.36152       -6.98218
H          4.07191       -4.47097       -8.24151
H          1.80751       -4.99634       -9.11417
H         -0.04614       -3.36931       -8.81542
H          0.37130       -1.22960       -7.63453
