25

C          1.02874        0.02084        0.14473
O          0.70134       -1.05135        1.02646
C          0.93827       -2.29577        0.49866
C          2.17350       -2.57825       -0.10960
C          2.38572       -3.85413       -0.57421
C          1.46044       -4.85162       -0.41134
C          0.24795       -4.61824        0.19606
C         -0.03167       -3.31836        0.65136
O         -1.27638       -3.21940        1.21859
C         -1.83630       -1.92411        1.37941
C          2.32040       -5.89845       -1.07570
C          2.75833       -6.96398       -0.19758
N          3.13110       -7.82681        0.48376
C          3.36903       -4.74394       -1.27698
H          0.51661        0.91714        0.50731
H          0.68082       -0.17488       -0.87592
H          2.10378        0.22371        0.15834
H          2.95559       -1.83428       -0.19814
H         -0.48153       -5.41273        0.31746
H         -1.39584       -1.41501        2.24165
H         -1.75562       -1.32610        0.46549
H         -2.90383       -2.04879        1.58720
H          1.92036       -6.27764       -2.02479
H          3.56223       -4.50237       -2.32914
H          4.33619       -4.88486       -0.78097
