29

C          1.54347       -0.22848       -1.57790
C          0.57633        0.43071       -2.55412
O          0.66498       -0.32128       -3.77687
C         -0.90199        0.42815       -2.15870
C         -1.43046        1.19206       -0.93900
O         -0.97161        2.50878       -0.69282
C          0.31509        2.69863       -0.13670
C          0.53621        2.45106        1.36122
C         -0.08958        1.26768        2.10524
C          0.40532       -0.12578        1.73542
O          0.22431        1.43792        3.49791
H          1.25370       -1.26191       -1.36499
H          1.63584        0.30414       -0.63439
H          2.54972       -0.26834       -2.01150
H          0.89995        1.44879       -2.79143
H          1.59587       -0.36141       -4.03662
H         -1.45558        0.80133       -3.03219
H         -1.23514       -0.61536       -2.06033
H         -2.51044        1.30424       -1.10796
H         -1.38674        0.58671       -0.04120
H          1.07792        2.21396       -0.73593
H          0.52540        3.76622       -0.29073
H          1.62190        2.44087        1.53441
H          0.19526        3.35599        1.88425
H         -1.18014        1.31526        2.03413
H          1.49548       -0.19461        1.80509
H          0.00017       -0.86464        2.43708
H          0.10731       -0.44559        0.73965
H          1.18144        1.29839        3.60629
