21

C          0.94084        0.03861       -0.11059
C          0.54750       -1.37831       -0.49860
C          0.98230       -2.43233        0.52229
C          0.38983       -2.27461        1.92552
C         -1.14083       -2.28393        2.00363
C         -1.76552       -3.58768        1.52525
O         -1.52494       -2.07225        3.36342
H          0.42357        0.36552        0.79612
H          0.67594        0.73502       -0.91267
H          2.01958        0.11349        0.05949
H         -0.53438       -1.42695       -0.66238
H          1.01589       -1.61717       -1.46115
H          0.73130       -3.42485        0.13006
H          2.07625       -2.41127        0.60720
H          0.78488       -3.07832        2.56151
H          0.76376       -1.35078        2.38466
H         -1.55643       -1.44932        1.43074
H         -1.37541       -4.44043        2.09181
H         -2.84865       -3.57259        1.68915
H         -1.58258       -3.76035        0.46120
H         -1.17349       -2.80980        3.89135
