22

O          0.97229        0.20990       -0.27182
N          2.14779       -0.08290       -0.00350
O          2.66026       -0.01820        1.12259
C          3.03505       -0.46245       -1.14720
C          2.68336       -1.86958       -1.53205
C          1.67242       -2.12904       -2.45252
C          1.39639       -3.45027       -2.78895
C          2.12670       -4.48720       -2.19825
C          1.87617       -5.83717       -2.50188
C          2.61556       -6.84525       -1.88671
C          3.60445       -6.50913       -0.96926
C          3.85290       -5.16519       -0.67462
C          3.13257       -4.14100       -1.27428
N          3.41027       -2.86205       -0.95928
H          2.85775        0.25287       -1.95637
H          4.07446       -0.37909       -0.81490
H          1.09798       -1.32414       -2.90232
H          0.60744       -3.66552       -3.50545
H          1.10205       -6.10864       -3.21588
H          2.41819       -7.88841       -2.12000
H          4.18412       -7.28688       -0.47875
H          4.62638       -4.91026        0.04605
