28

C          1.23939        0.15336        0.14277
C          0.53113       -0.93443        0.47076
C         -0.94439       -1.06769        0.27474
O         -1.17416       -2.17147       -0.60546
C         -1.48166       -1.85885       -1.88872
O         -1.46199       -0.72804       -2.36424
C         -1.96244       -3.08133       -2.68389
C         -1.26294       -4.39093       -2.34129
O         -3.39312       -3.23046       -2.72720
C         -4.05719       -3.38712       -1.54558
O         -3.53930       -3.50224       -0.44370
C         -5.56731       -3.34003       -1.78008
C         -5.99414       -1.91215       -2.08594
O         -5.99384       -4.19826       -2.83168
H          0.76808        1.02578       -0.30106
H          2.31263        0.18525        0.29933
H          1.03825       -1.79335        0.90267
H         -1.41587       -1.30830        1.23423
H         -1.41315       -0.14128       -0.07878
H         -1.67375       -2.85808       -3.71995
H         -1.46930       -4.71698       -1.31799
H         -1.61160       -5.18935       -3.00539
H         -0.17784       -4.29332       -2.44904
H         -6.05485       -3.68310       -0.86105
H         -5.61105       -1.58845       -3.06063
H         -7.08535       -1.84164       -2.13727
H         -5.62935       -1.21216       -1.32744
H         -5.48736       -3.94816       -3.62543
