18

N          0.88787       -0.11168       -0.07422
C          0.12023       -0.12084       -1.18561
N         -1.00167        0.52928       -1.18340
C         -1.68973        0.46057       -2.34320
N         -2.33194        1.42770       -2.89221
C         -2.62693        0.93554       -4.13831
N         -2.21066       -0.26328       -4.43403
C         -1.63614       -0.76082       -3.17067
C         -0.19751       -1.13853       -3.23510
C          0.25176       -1.95375       -4.41746
F          1.48358       -2.50797       -4.23714
F         -0.59076       -2.99239       -4.67006
F          0.33241       -1.22217       -5.56037
N          0.61259       -0.80964       -2.26223
H          0.68388        0.66853        0.53838
H          1.87302       -0.24476       -0.26324
H         -3.15493        1.56673       -4.87121
H         -2.23638       -1.56759       -2.74145
