40

C          1.42312        0.01502       -0.16161
C          0.49432       -1.16337        0.11152
C          0.80483       -1.84536        1.44506
O         -0.88320       -0.80651       -0.10935
C         -1.57034       -0.25434        0.93578
C         -1.35913        1.08089        1.30261
C         -2.07112        1.64648        2.37329
N         -1.72144        2.93302        2.82795
N         -1.45023        3.95429        1.95550
C         -1.26695        4.95985        2.75954
C         -1.03769        6.40956        2.38594
C          0.11937        6.51033        1.38660
C         -2.32759        6.95265        1.75636
C         -0.69717        7.25559        3.62639
O         -1.33393        4.68200        4.07956
C         -1.59819        3.35075        4.13586
O         -1.63155        2.70897        5.17404
C         -3.09401        0.88828        2.97737
Cl        -4.23480        1.57261        4.08922
C         -3.34430       -0.42545        2.57173
C         -2.57664       -0.99893        1.56213
Cl        -2.92126       -2.62653        1.10017
H          1.44985        0.70933        0.68348
H          1.09079        0.57526       -1.04164
H          2.44750       -0.33113       -0.33269
H          0.70284       -1.90701       -0.66845
H          0.60575       -1.18962        2.29852
H          0.19394       -2.74450        1.57322
H          1.85836       -2.14277        1.49072
H         -0.61611        1.67484        0.77914
H         -0.10257        5.97381        0.45761
H          0.32461        7.55519        1.12523
H          1.03815        6.08127        1.80210
H         -3.17853        6.83763        2.43819
H         -2.23382        8.01739        1.51381
H         -2.57798        6.42009        0.83201
H         -1.50997        7.23223        4.36240
H          0.20660        6.88479        4.12391
H         -0.52649        8.30476        3.36066
H         -4.15421       -0.99033        3.02715
