24

C          2.51234       -0.13869       -0.01003
C          1.01235       -0.00578       -0.00122
C          0.28972       -1.21781       -0.00065
C         -1.10301       -1.23679        0.00029
C         -1.80350       -0.04074       -0.00009
C         -1.10809        1.16831       -0.00075
C          0.30429        1.21650       -0.00146
C          0.98096        2.58317       -0.00378
C          0.64213        3.37658       -1.27061
C          0.63480        3.38629        1.25520
H          2.83628       -0.71679        0.86255
H          2.82967       -0.66336       -0.91795
H          3.05305        0.80588        0.01959
H          0.82401       -2.16654       -0.00183
H         -1.63572       -2.18346        0.00035
H         -2.88996       -0.04327       -0.00048
H         -1.68808        2.08917       -0.00171
H          2.06629        2.47398        0.00002
H         -0.42275        3.62467       -1.33180
H          1.20206        4.31785       -1.29519
H          0.90564        2.80691       -2.16884
H          0.89293        2.82356        2.15936
H          1.19472        4.32769        1.27592
H         -0.43028        3.63533        1.30852
