44

C         -1.62206       -0.08351       -0.59853
C         -0.77319        1.15253       -0.32445
C          0.70104        0.89689       -0.63188
C          1.28084       -0.30787        0.12840
N          1.34949       -0.15636        1.58378
C          2.45961        0.64281        2.11202
C          2.28970        2.18148        2.11742
N          1.01606        2.61808        2.70541
C          0.50873        3.86906        2.12596
C         -0.91705        4.10206        2.65602
C         -1.51141        5.40351        2.12378
C         -0.61154        6.59472        2.43250
C          0.80559        6.37322        1.91374
C          1.40665        5.07256        2.44652
C          0.40616       -1.54214       -0.17973
C         -1.08005       -1.31888        0.11528
H         -1.64750       -0.27101       -1.67893
H         -2.65523        0.10255       -0.28392
H         -1.13412        1.98870       -0.93422
H         -0.89775        1.45163        0.72046
H          1.27924        1.80371       -0.45010
H          0.80038        0.70495       -1.70912
H          2.28709       -0.51842       -0.25425
H          0.46013        0.10601        1.98963
H          2.59592        0.32703        3.15438
H          3.39530        0.38112        1.60378
H          3.10918        2.61607        2.70205
H          2.41037        2.55020        1.09519
H          0.31840        1.89235        2.57523
H          0.43955        3.75758        1.03547
H         -1.57092        3.27011        2.36568
H         -0.91115        4.13197        3.75367
H         -2.50143        5.56381        2.56542
H         -1.65483        5.32291        1.03910
H         -0.58176        6.75783        3.51682
H         -1.03261        7.50123        1.98369
H          1.44025        7.21793        2.20373
H          0.79189        6.34554        0.81695
H          1.54855        5.15763        3.53154
H          2.40091        4.94088        2.00391
H          0.76350       -2.41405        0.38245
H          0.51867       -1.79706       -1.24200
H         -1.23664       -1.21536        1.19553
H         -1.65120       -2.19966       -0.19954
