20

C          1.04228        0.14380       -0.10027
C          0.60504        1.43954        0.55418
C          1.06489        2.64270       -0.22847
O          0.30543        3.41294       -0.80321
O          2.42353        2.75047       -0.17029
O          2.78263        3.95134       -0.92230
C          4.14126        3.94606       -1.04465
O          4.90072        3.09269       -0.60266
C          4.60111        5.17549       -1.78534
C          4.16387        5.15248       -3.23679
H          0.68343        0.08517       -1.13308
H          0.64553       -0.71410        0.45133
H          2.13362        0.05853       -0.12161
H         -0.48856        1.47169        0.61678
H          0.98662        1.51569        1.57799
H          4.21953        6.06330       -1.26981
H          5.69471        5.21777       -1.72909
H          3.07253        5.17051       -3.32283
H          4.56063        6.02330       -3.76776
H          4.52273        4.24891       -3.74050
