22

C          1.39516       -0.26328        0.05191
C          0.93211        1.04945        0.01502
C         -0.43949        1.30513       -0.06281
C         -1.37129        0.25456       -0.10342
C         -2.81492        0.52728       -0.18772
C         -3.34073        1.32061       -1.22106
C         -4.71056        1.58520       -1.30074
C         -5.57816        1.06111       -0.34595
C         -5.07771        0.27133        0.68621
C         -3.70763        0.00594        0.76321
C         -0.88337       -1.06199       -0.06272
C          0.48830       -1.31953        0.01300
H          2.46179       -0.46291        0.11088
H          1.63623        1.87656        0.04882
H         -0.78208        2.33787       -0.08003
H         -2.68037        1.73096       -1.98246
H         -5.09753        2.19901       -2.10980
H         -6.64331        1.26816       -0.40610
H         -5.75157       -0.13667        1.43491
H         -3.33497       -0.60372        1.58392
H         -1.57496       -1.90112       -0.10342
H          0.84643       -2.34532        0.03840
