24

O          1.38751       -0.48908        0.57339
C          2.59148       -0.28835        0.66804
C          3.66254       -1.10126       -0.03152
C          3.12813       -2.32406       -0.80241
C          3.23721       -1.98194       -2.29988
O          1.99346       -2.10532       -2.98345
C          1.44491       -0.76884       -3.06954
C         -0.09041       -0.69445       -2.74661
Cl        -0.59545        0.98010       -2.33352
Cl        -1.02724       -1.18190       -4.22192
Cl        -0.60352       -1.80560       -1.43726
O          2.29583        0.12087       -2.30598
C          3.57748       -0.51530       -2.35767
C          4.38283       -0.26843       -1.09146
O          4.48404        1.10810       -0.76851
H          2.96746        0.53121        1.30623
H          4.35337       -1.41751        0.75848
H          3.77849       -3.18292       -0.59545
H          2.11709       -2.61850       -0.50970
H          3.99150       -2.61309       -2.78127
H          1.58416       -0.45179       -4.11229
H          4.08993       -0.20131       -3.27274
H          5.39933       -0.65927       -1.22239
H          3.70350        1.55565       -1.15463
