23

Cl        -2.60110        0.96647        0.33329
C         -1.17338        0.01553        0.20760
C         -1.24886       -1.36700        0.35973
C         -0.09394       -2.14918        0.25361
C          1.14111       -1.54561       -0.01946
O          2.33321       -2.22908       -0.17133
C          2.33054       -3.60554       -0.12396
C          2.01551       -4.35784       -1.26943
Cl         1.57459       -3.55062       -2.73955
C          2.06856       -5.75615       -1.20533
Cl         1.65816       -6.76440       -2.54835
C          2.46328       -6.39274       -0.02563
C          2.81333       -5.64020        1.09821
Cl         3.31326       -6.50733        2.50748
C          2.75393       -4.24190        1.05561
Cl         3.19263       -3.28552        2.43372
C          1.20041       -0.14852       -0.15752
Cl         2.69716        0.65834       -0.47340
C          0.04797        0.63235       -0.04511
H         -2.20598       -1.84486        0.55860
H         -0.19569       -3.22167        0.38155
H          2.50790       -7.47981        0.01483
H          0.10348        1.71129       -0.15732
