18

C          1.00595       -0.12856        0.10011
O          0.35624       -0.06551        1.36443
C          0.87789       -0.84698        2.35736
C         -0.00131       -1.12108        3.41024
C          0.40733       -1.89378        4.50013
C          1.71781       -2.38218        4.53936
N          2.16208       -3.18558        5.68500
O          1.33940       -3.41728        6.58172
O          3.33576       -3.58567        5.68734
C          2.61055       -2.10325        3.49627
C          2.18577       -1.33496        2.40556
H          0.43832        0.49621       -0.59643
H          1.00393       -1.15270       -0.28786
H          2.02202        0.27472        0.14712
H         -1.01718       -0.73240        3.37574
H         -0.30061       -2.09805        5.30027
H          3.63601       -2.46727        3.51889
H          2.90435       -1.11889        1.62125
