27

C          0.94123       -0.06158        0.10696
C          0.58841        1.41757        0.13128
C          1.07237        2.17873       -1.10579
C          0.47844        1.71549       -2.44106
C         -1.05514        1.72203       -2.51754
C         -1.69991        3.09756       -2.29553
O         -1.30900        3.97943       -3.34850
C         -3.23228        3.04316       -2.30263
C         -3.81957        2.29864       -1.11389
H          0.43168       -0.58380       -0.70797
H          0.63761       -0.53575        1.04584
H          2.02002       -0.20498       -0.01059
H         -0.49355        1.53484        0.25588
H          1.05051        1.86974        1.01720
H          0.86246        3.24539       -0.96462
H          2.16480        2.09531       -1.16782
H          0.88774        2.34466       -3.24057
H          0.83027        0.69969       -2.65846
H         -1.33161        1.35977       -3.51643
H         -1.44663        0.99292       -1.80178
H         -1.37064        3.54143       -1.35032
H         -0.35980        4.16246       -3.24574
H         -3.62215        4.06925       -2.30329
H         -3.58926        2.59297       -3.23718
H         -3.43980        2.70339       -0.17033
H         -4.90973        2.39810       -1.10973
H         -3.58645        1.23086       -1.15114
