18

C          0.97313       -0.01692       -0.13754
C          0.46983        0.28435        1.26789
C          0.95682        1.63739        1.82545
C          0.49612        2.81393        0.96175
C          0.47572        1.84908        3.26925
O          1.03471        0.87983        4.14591
H          0.54354        0.66718       -0.87491
H          0.68700       -1.03324       -0.42749
H          2.06410        0.05479       -0.18823
H         -0.62649        0.25111        1.27011
H          0.81170       -0.52637        1.92148
H          2.05461        1.61932        1.83342
H         -0.59455        2.82949        0.86291
H          0.80894        3.76653        1.40308
H          0.93040        2.76789       -0.04142
H          0.79302        2.83154        3.63438
H         -0.61644        1.80303        3.34321
H          0.56856        0.04050        3.99514
