113

C          2.28508       -1.88787        2.30130
C          1.38025       -0.84456        2.86583
O          1.04167        0.08970        2.14306
O          0.97927       -1.05700        4.18285
C          0.01968       -0.07657        4.67909
C          0.60823        1.33898        5.43650
O          1.24591        1.23633        6.49128
C          0.22628        2.90351        4.81603
C          0.60414        2.79246        3.33666
C          1.32597        3.90455        5.35822
O          2.65227        3.55399        4.96852
C          1.02603        5.36175        4.91693
C         -0.18627        5.66933        5.72002
O         -0.68268        7.02255        5.81356
C         -1.91945        6.34530        6.31401
C         -1.57481        5.15548        5.21832
O         -2.13954        5.59410        3.94640
C         -3.48862        5.86473        3.82515
C         -4.45137        5.59721        4.97430
O         -3.94266        6.29760        2.76627
C         -1.41232        3.54417        5.24269
C         -2.78524        2.89087        4.52401
O         -2.66809        3.32116        3.00854
C         -2.24502        2.62238        1.88369
O         -2.21342        1.43526        1.67239
C         -1.58031        3.45971        0.84748
C         -0.35628        2.99455        0.30882
C          0.26921        3.64868       -0.74970
C         -0.36912        4.73104       -1.33692
C         -1.59981        5.17436       -0.83572
C         -2.19875        4.55700        0.27126
C         -3.00857        1.35436        4.71669
O         -1.85439        1.25860        3.95447
C         -4.03710        0.59172        3.84767
C         -3.73832       -0.95796        3.82887
O         -4.24586       -1.74598        2.73131
C         -4.67571       -1.28967        1.53900
O         -4.97150       -0.14406        1.24056
C         -4.82387       -2.46570        0.58347
O         -3.60384       -3.21471        0.49896
C         -6.00807       -3.36167        1.05365
N         -7.24257       -2.55359        1.20659
C         -8.57289       -2.86141        1.25672
O         -9.36194       -2.07633        1.77519
C         -9.08677       -4.05022        0.58043
C         -9.65075       -3.88514       -0.68907
C        -10.03911       -5.00867       -1.41246
C         -9.88076       -6.27903       -0.85479
C         -9.36820       -6.42834        0.43786
C         -8.98191       -5.30794        1.17082
C         -6.06323       -4.55727        0.11335
C         -6.38490       -4.41120       -1.24319
C         -6.33556       -5.50654       -2.10604
C         -5.94850       -6.75790       -1.63018
C         -5.60601       -6.91765       -0.29023
C         -5.65928       -5.82486        0.57602
C         -2.25120       -1.32271        4.11876
C         -1.58078       -1.92366        2.90534
C         -1.56778       -0.67711        5.14380
C         -2.59947        0.40504        5.96294
C         -1.93587        0.99658        7.21723
C         -3.92803       -0.11681        6.66989
H          2.38985       -1.68738        1.22246
H          1.85487       -2.88407        2.39515
H          3.27388       -1.80323        2.74793
H         -0.23120        0.33570        3.72116
H         -0.03664        2.11209        2.80987
H          0.62546        3.73983        2.80202
H          1.60767        2.35139        3.22996
H          1.33020        3.83496        6.45254
H          2.97878        4.18103        4.30064
H          0.85810        5.46983        3.84051
H          1.86455        6.02178        5.16129
H          0.05793        5.37349        6.75585
H         -1.85993        6.10894        7.38154
H         -2.76310        7.01370        6.13470
H         -4.93759        6.52850        5.27779
H         -5.22483        4.89243        4.64710
H         -3.99983        5.16128        5.86637
H         -1.48011        3.30096        6.30474
H         -3.67810        3.36753        4.90565
H          0.12024        2.09777        0.70315
H          1.22318        3.28774       -1.12778
H          0.07931        5.21458       -2.20126
H         -2.10997        5.99602       -1.33038
H         -3.16356        4.89809        0.63298
H         -1.23699        1.54149        4.61495
H         -4.01823        0.98857        2.84120
H         -5.06224        0.77301        4.18656
H         -4.28992       -1.44080        4.63160
H         -5.02299       -2.05555       -0.41336
H         -2.94643       -2.63456        0.07591
H         -5.80128       -3.74071        2.06460
H         -7.12100       -1.70212        1.74581
H         -9.74491       -2.89190       -1.12093
H        -10.43621       -4.89665       -2.41740
H        -10.14485       -7.15886       -1.43520
H         -9.23629       -7.42116        0.85829
H         -8.55495       -5.41781        2.16258
H         -6.68077       -3.44071       -1.63391
H         -6.59891       -5.38018       -3.15206
H         -5.90638       -7.60664       -2.30674
H         -5.28484       -7.88844        0.07789
H         -5.35795       -5.96456        1.61248
H         -0.66021       -2.44662        3.14704
H         -2.19738       -2.68555        2.42955
H         -1.40089       -1.14100        2.15731
H         -2.45469        1.90137        7.55178
H         -1.99321        0.28823        8.05883
H         -0.89036        1.21644        7.13712
H         -4.38919        0.70967        7.23377
H         -4.76120       -0.45037        6.05740
H         -3.72132       -0.92514        7.38134
