18

C          1.15873        0.02970       -0.01205
C          0.64807       -0.80427       -1.17729
C          0.98668       -2.29465       -1.06643
N          0.31451       -2.89885        0.10910
P          0.37668       -3.23670       -2.51189
O          1.55324       -2.76689       -3.37474
O          0.91168       -4.65820       -1.87325
O         -0.19999       -4.12727       -3.87836
H          0.67372       -0.25143        0.92750
H          0.94830        1.08938       -0.18949
H          2.24056       -0.08502        0.10772
H         -0.43724       -0.67427       -1.27159
H          1.08035       -0.41032       -2.10483
H          2.06935       -2.43560       -0.96015
H          0.44764       -3.91614        0.03285
H          0.81041       -2.62127        0.95504
H          1.73435       -4.92974       -2.32223
H          0.53573       -4.09880       -4.52277
