30

C          1.08849       -0.00719        0.06359
O          0.52792       -1.31427        0.15518
C          0.89631       -2.16135       -0.85260
C         -0.08665       -3.04475       -1.29403
C          0.18742       -3.94588       -2.32625
C          1.45767       -3.98611       -2.91999
C          1.66189       -4.91865       -4.07394
O          0.70535       -5.54208       -4.52426
C          2.96770       -5.00231       -4.72053
C          4.13781       -5.40562       -4.10428
S          5.48636       -5.35276       -5.16026
C          4.51935       -4.84789       -6.47480
S          5.35123       -4.54261       -8.00659
N          6.49219       -3.33548       -7.74498
O          6.07179       -5.74244       -8.35776
O          4.35879       -3.94604       -8.87040
C          3.19302       -4.73498       -6.11030
C          2.44878       -3.11141       -2.45192
C          2.17125       -2.21175       -1.41435
H          0.55110        0.63615        0.76693
H          0.95974        0.41322       -0.94035
H          2.14335       -0.00882        0.35425
H         -1.07909       -3.01640       -0.85048
H         -0.60657       -4.60399       -2.67621
H          4.27622       -5.72332       -3.07865
H          7.33571       -3.56114       -8.27507
H          6.09682       -2.43610       -8.02296
H          2.41664       -4.43752       -6.80767
H          3.44573       -3.09271       -2.88165
H          2.96816       -1.56629       -1.05775
