38

C          0.83462       -0.06648       -0.37264
C          0.61073       -1.56270       -0.26041
O          1.76726       -2.30651        0.08054
P          2.65551       -2.00761        1.39729
O          2.26391       -0.73773        2.09669
S          2.50432       -3.59881        2.74726
C          0.76521       -3.96059        3.11065
C          0.01380       -2.70613        3.54469
C          0.04782       -4.68612        1.96286
C          0.71615       -5.98431        1.52321
S          4.65279       -1.97384        0.77103
C          5.39308       -0.32650        0.94429
C          4.98842        0.55196       -0.23608
C          5.15857        0.39300        2.27903
C          5.50920       -0.42318        3.51477
H          0.73898        0.41554        0.60491
H          0.07744        0.38893       -1.01805
H          1.82554        0.16298       -0.76888
H         -0.20209       -1.78539        0.43496
H          0.29774       -1.93173       -1.24333
H          0.78320       -4.64093        3.97107
H         -0.09324       -1.98542        2.73005
H         -0.99677       -2.96731        3.87902
H          0.51281       -2.20789        4.38325
H         -0.97209       -4.92706        2.28901
H         -0.05898       -4.03061        1.09397
H          0.87130       -6.65566        2.37367
H          0.08493       -6.50126        0.79356
H          1.68255       -5.80178        1.04347
H          6.47293       -0.49937        0.85675
H          3.92299        0.79499       -0.21547
H          5.54115        1.49806       -0.21151
H          5.21898        0.07192       -1.19423
H          5.77617        1.30072        2.29107
H          4.12729        0.74931        2.35511
H          6.55511       -0.74386        3.48700
H          5.36501        0.18399        4.41420
H          4.87676       -1.30894        3.61661
