40

C          1.79924        0.01776        1.57569
N          0.71557       -0.83143        1.10090
C         -0.35156       -0.95577        2.09010
C          1.17891       -2.12769        0.60632
C          0.53100       -2.54237       -0.73168
C          0.78644       -1.59951       -1.96458
O          2.22927       -1.57818       -2.10651
C          0.32504       -2.21163       -3.30672
C         -0.26601       -1.43357       -4.32196
C         -0.65357       -1.98952       -5.54498
C         -0.44039       -3.34038       -5.79566
C          0.17323       -4.12768       -4.82990
C          0.55983       -3.56951       -3.60654
C          0.26820       -0.15687       -1.74676
C          1.14387        0.94097       -1.93421
C          0.75618        2.25287       -1.64841
C         -0.52660        2.51250       -1.18739
C         -1.43595        1.46616       -1.06722
C         -1.05793        0.14916       -1.36945
Cl        -2.33366       -1.01945       -1.32051
H          1.42155        1.01982        1.80981
H          2.54723        0.15798        0.78640
H          2.29701       -0.39007        2.45988
H         -1.27870       -1.28454        1.61024
H         -0.10329       -1.66483        2.88742
H         -0.57095        0.01023        2.55983
H          2.26839       -2.13095        0.47474
H          0.99381       -2.91895        1.34584
H          0.97192       -3.52572       -0.93865
H         -0.53118       -2.74370       -0.57780
H          2.57037       -1.08513       -1.34330
H         -0.43256       -0.36698       -4.18917
H         -1.11320       -1.36036       -6.30152
H         -0.73676       -3.77115       -6.74736
H          0.36768       -5.17879       -5.02925
H          1.07839       -4.21324       -2.90267
H          2.15384        0.78766       -2.31026
H          1.46260        3.06809       -1.78345
H         -0.82800        3.52778       -0.94561
H         -2.45089        1.68093       -0.74132
