30

C          2.48010       -0.05729        0.08339
C          0.98061       -0.00392        0.04744
C          0.24706       -1.17722       -0.16991
C         -1.14703       -1.14207       -0.19996
C         -1.81479        0.06997        0.00106
S         -3.58921        0.05316       -0.08932
O         -3.93038       -0.48394       -1.39445
O         -4.04657       -0.60012        1.12336
C         -4.21163        1.71912       -0.06868
C         -4.06410        2.51855       -1.21365
C         -4.56026        3.82500       -1.21783
C         -5.21076        4.30464       -0.08599
O         -5.72269        5.57106       -0.02944
C         -5.36801        3.49435        1.03858
O         -6.02090        3.97525        2.13682
C         -4.87560        2.19861        1.06240
C         -1.09840        1.24362        0.24063
C          0.29862        1.20159        0.26141
H          2.81615       -0.56760        0.99135
H          2.86212       -0.59224       -0.79243
H          2.91651        0.94684        0.07130
H          0.75971       -2.12538       -0.31985
H         -1.70769       -2.05790       -0.37749
H         -3.57019        2.12636       -2.10108
H         -4.43843        4.44007       -2.10400
H         -5.56294        6.00608       -0.88485
H         -6.29929        4.87908        1.88722
H         -5.02024        1.58123        1.94489
H         -1.59142        2.19430        0.41717
H          0.85476        2.11875        0.44634
