35

C          2.60174       -0.56317        0.47380
O          1.91578       -0.55447        1.72909
C          1.30307       -1.70736        2.07617
O          1.36464       -2.79830        1.53849
C          0.54940       -1.44495        3.30639
C          1.23751       -1.69563        4.50490
C          0.58943       -1.54797        5.72878
C         -0.74803       -1.16025        5.75757
C         -1.43689       -0.91664        4.56394
C         -0.79381       -1.04359        3.32491
O         -1.59966       -0.83385        2.22865
S         -1.13712        0.17408        1.02760
O         -0.53867        1.35965        1.61218
O         -0.45194       -0.59371        0.00622
C         -2.65159        0.69161        0.24564
C         -2.88740        2.05261        0.03496
C         -3.96082        2.44666       -0.76384
C         -4.79923        1.48881       -1.35086
C         -5.87720        1.92882       -2.29885
C         -4.57255        0.12812       -1.09926
C         -3.49933       -0.27539       -0.30150
H          2.35279        0.36460       -0.05063
H          2.32118       -1.40395       -0.16793
H          3.67809       -0.57965        0.65998
H          2.27596       -2.02082        4.48063
H          1.12326       -1.74806        6.65506
H         -1.25907       -1.05626        6.71234
H         -2.48469       -0.62804        4.60915
H         -2.21537        2.80756        0.43739
H         -4.11645        3.50559       -0.96201
H         -6.51034        2.68976       -1.83237
H         -5.42472        2.34532       -3.20550
H         -6.51847        1.09269       -2.59535
H         -5.20704       -0.62765       -1.55861
H         -3.29919       -1.33584       -0.16457
