18

Cl         2.45788       -0.98843        0.02580
C          1.16752        0.16977        0.01341
C          1.53299        1.51986        0.00893
C          0.55378        2.50658       -0.00137
C         -0.79216        2.14503       -0.00776
C         -1.18013        0.79492       -0.00354
C         -2.54233        0.45122       -0.01041
C         -2.94701       -0.88297       -0.00571
C         -1.99447       -1.89323        0.00610
C         -0.63610       -1.56909        0.01261
C         -0.19451       -0.22376        0.00772
H          2.58178        1.80576        0.01348
H          0.83630        3.55620       -0.00457
H         -1.54405        2.93224       -0.01600
H         -3.30548        1.22695       -0.01959
H         -4.00518       -1.13092       -0.01116
H         -2.30351       -2.93536        0.01022
H          0.08156       -2.38689        0.02179
