176

C         -0.59344        0.48467       -0.40236
C         -0.55023       -0.65461       -1.37642
C         -0.59387       -1.94532       -1.03053
O         -0.79365       -2.30723        0.29063
C         -0.72528       -3.64525        0.60736
C         -1.12609       -4.00865        1.88264
C         -1.32032       -2.99913        2.96956
C         -1.27066       -5.36442        2.10154
C         -0.68541       -6.26763        1.19939
C          0.19100       -5.86825        0.17784
C          1.01776       -7.00506       -0.46258
O          0.22033       -7.76914       -0.99411
N          2.46470       -7.24222       -0.66043
C          3.49375       -8.42851       -0.07240
C          3.82804       -9.94250       -0.50585
O          4.27538      -10.21704       -1.61430
N          3.85501      -10.91133        0.50072
C          3.82055      -12.37532        0.24058
C          5.14585      -13.09425       -0.16352
C          4.82694      -14.47820       -0.77137
C          6.04501      -12.37712       -1.16249
C          3.16302      -13.08486        1.49520
O          1.94358      -13.09650        1.65918
N          4.03317      -13.51870        2.47396
C          4.43449      -14.90715        2.63504
C          5.46720      -14.88806        3.75488
C          5.77032      -13.40419        3.95646
C          4.43327      -12.72743        3.63715
C          3.48430      -12.80401        4.87870
O          2.61796      -13.67751        4.96937
N          3.70959      -11.90566        5.92549
C          2.78221      -11.87903        7.04721
C          4.83076      -10.97160        5.99558
C          4.56052       -9.66826        5.24445
O          3.42894       -9.18214        5.20394
N          5.66550       -9.02532        4.68009
C          7.04484       -9.46029        4.86034
C          5.44956       -7.69117        4.10881
C          5.88308       -6.56048        5.09976
C          5.29805       -5.19683        4.72353
C          5.42894       -6.84132        6.54621
C          5.96907       -7.59985        2.63245
O          6.87590       -6.87572        2.25426
O          5.12480       -8.28604        1.79163
C          4.92633       -7.90631        0.37165
C          6.13035       -8.33493       -0.45862
C         -0.18033       -4.59481       -0.29544
N         -0.15557       -4.24196       -1.64600
C         -0.37417       -3.02341       -2.02655
C         -0.38540       -2.65336       -3.46641
C         -0.41932       -3.63551       -4.59436
O         -1.26657       -3.50955       -5.48467
N          0.54864       -4.58410       -4.76221
C          1.21272       -5.39406       -3.72523
C          1.33267       -6.83853       -4.29401
O          1.57553       -7.05266       -5.46975
N          1.06867       -7.81293       -3.34796
C          0.99320       -9.27942       -3.50962
C          2.36613       -9.90015       -3.74313
C          2.32738      -11.37910       -4.10533
C          3.32347       -9.20279       -4.71917
C          0.13110       -9.83052       -2.22330
O         -1.10064       -9.67207       -2.26875
N          0.74763      -10.47380       -1.07254
C          0.12146      -11.80450       -1.07600
C         -1.09660      -11.71925       -0.12494
C         -0.94964      -10.41121        0.68447
C          0.51394      -10.05304        0.47159
C          1.32045       -9.30635        1.79761
O          2.27856       -9.91701        2.31444
N          1.03369       -8.02507        2.34814
C          0.22042       -8.21449        3.54886
C          2.18227       -6.99790        2.63476
C          2.19238       -5.38962        2.33113
O          1.44514       -4.65562        2.98138
N          3.04733       -4.82638        1.33399
C          4.47049       -4.95338        1.48754
C          2.71520       -3.55360        0.61665
C          3.31812       -2.24205        1.25018
C          2.60856       -0.98753        0.71264
C          3.22894       -2.15808        2.78296
C          3.04683       -3.62026       -0.95195
O          3.68211       -2.75242       -1.54235
O          2.47180       -4.67691       -1.61621
C          2.48230       -4.69837       -3.09929
C          3.79492       -5.31921       -3.55110
C         -0.43400       -1.35837       -3.84564
N         -0.48570       -0.87872       -5.15697
C         -0.45152       -0.27743       -2.80046
O         -0.45662        0.90594       -3.13657
H         -0.71691        0.15164        0.63286
H         -1.41629        1.16817       -0.63022
H          0.34787        1.04512       -0.44915
H         -0.39576       -2.41808        3.09012
H         -2.14061       -2.31577        2.74246
H         -1.51145       -3.47971        3.93468
H         -1.73439       -5.73739        3.01071
H         -0.88201       -7.32334        1.34944
H          2.50481       -7.46930       -1.65075
H          3.00087       -8.58243        0.83859
H          3.41308      -10.64007        1.38269
H          3.11708      -12.51314       -0.58962
H          5.76032      -13.24255        0.73132
H          4.46753      -14.38644       -1.80196
H          5.72711      -15.10373       -0.78453
H          4.05486      -15.01920       -0.21755
H          6.38213      -11.41777       -0.77274
H          6.94561      -12.97166       -1.35629
H          5.54321      -12.23292       -2.12383
H          3.57062      -15.53621        2.86801
H          4.89012      -15.27419        1.71651
H          5.04361      -15.31631        4.67002
H          6.36841      -15.45657        3.50565
H          6.52378      -13.07664        3.22810
H          6.17225      -13.24257        4.95610
H          4.52919      -11.68262        3.33188
H          1.82925      -12.35447        6.80284
H          3.24275      -12.40827        7.88728
H          2.58968      -10.84178        7.33988
H          5.72222      -11.44861        5.60933
H          5.02897      -10.72280        7.04484
H          7.22692       -9.66174        5.92013
H          7.20567      -10.37161        4.27966
H          7.74484       -8.69176        4.52212
H          4.37522       -7.54826        4.00362
H          6.97515       -6.47157        5.09710
H          4.21424       -5.25339        4.57108
H          5.47515       -4.45221        5.50767
H          5.77512       -4.81427        3.82309
H          5.92626       -7.72018        6.96519
H          5.66925       -5.99939        7.20504
H          4.34513       -6.99732        6.59874
H          4.88634       -6.83954        0.28066
H          5.92845       -8.25981       -1.53126
H          6.98638       -7.68767       -0.24329
H          6.45472       -9.34522       -0.20234
H          0.40513       -5.08968       -5.63496
H          0.45145       -5.56236       -2.98594
H          0.39625       -7.52489       -2.63548
H          0.37256       -9.46455       -4.39606
H          2.80748       -9.78653       -2.78190
H          1.91870      -11.52421       -5.11025
H          3.34130      -11.79803       -4.09337
H          1.73304      -11.95985       -3.40083
H          3.57115       -8.18976       -4.39384
H          4.28380       -9.72984       -4.76844
H          2.91498       -9.16796       -5.73343
H         -0.17275      -12.14562       -2.07608
H          0.85240      -12.52474       -0.69745
H         -2.03759      -11.72149       -0.68478
H         -1.10670      -12.59306        0.53568
H         -1.21152      -10.55738        1.73536
H         -1.60294       -9.63216        0.27849
H          0.98452      -10.98550        0.83360
H         -0.69460       -8.75863        3.29929
H          0.77931       -8.80618        4.28353
H         -0.03595       -7.24840        3.99023
H          3.08980       -7.37883        2.21468
H          2.34675       -7.05165        3.71852
H          4.66433       -5.81443        2.09312
H          4.95639       -4.97151        0.50967
H          4.89992       -4.10430        2.01543
H          1.65259       -3.41417        0.70501
H          4.37589       -2.16952        0.96589
H          1.56823       -0.96221        1.05052
H          3.09748       -0.08055        1.08493
H          2.61096       -0.93090       -0.37744
H          3.71871       -2.98870        3.29268
H          3.72170       -1.24514        3.13773
H          2.18889       -2.12427        3.12069
H          2.46691       -3.65168       -3.42938
H          3.84156       -5.41228       -4.63964
H          4.63863       -4.70115       -3.22717
H          3.94248       -6.30046       -3.09229
H         -0.85081        0.07662       -5.19287
H         -0.98333       -1.51612       -5.78866
