26

C          0.96885       -0.36316        0.08267
C          0.21625       -0.32837        1.19122
C         -1.23830        0.08245        1.19996
C         -1.75838        0.47233        2.60132
C         -0.76489        0.10525        3.71721
C          0.63356        0.72526        3.40875
C          0.85480       -0.55559        2.53252
C         -0.05662       -1.30687        3.59923
C         -0.91366       -2.49351        3.14796
C          0.69646       -1.75173        4.87227
H          0.54268       -0.13907       -0.89064
H          2.02807       -0.59874        0.11438
H         -1.40511        0.91996        0.51148
H         -1.84368       -0.74549        0.81157
H         -1.94699        1.55291        2.62831
H         -2.72436       -0.01289        2.78326
H         -1.16054        0.34874        4.70896
H          1.30623        0.83165        4.26593
H          0.63650        1.68879        2.88666
H          1.89046       -0.90828        2.48129
H         -0.28246       -3.35984        2.92027
H         -1.61024       -2.78658        3.94207
H         -1.51511       -2.29801        2.26119
H          1.38152       -0.99570        5.26342
H         -0.01338       -1.99032        5.67236
H          1.29312       -2.64861        4.67089
