30

C          0.83113        0.07851       -0.36539
C          0.35230        1.02018        0.75833
C          0.96154        2.43222        0.67361
C          2.09941        2.70633       -0.10874
C          2.64621        3.99144       -0.17943
C          2.06951        5.03525        0.53340
C          0.97233        4.78413        1.35046
C          0.44519        3.49135        1.44395
C         -1.17875        0.90897        0.83552
C         -2.01690        1.89973        0.28712
C         -3.41010        1.81283        0.37917
C         -3.99363        0.70020        0.96725
O         -5.35415        0.64617        1.02466
C         -3.20442       -0.32246        1.46855
C         -1.81267       -0.21349        1.41047
O         -1.14004       -1.28287        1.93791
H          0.61799        0.49945       -1.35507
H          0.34999       -0.90439       -0.32335
H          1.90893       -0.10470       -0.29404
H          0.74807        0.63258        1.70769
H          2.59449        1.92851       -0.68327
H          3.52273        4.17274       -0.79666
H          2.48086        6.03824        0.46034
H          0.52249        5.59534        1.91715
H         -0.40050        3.32963        2.11040
H         -1.59884        2.77346       -0.21010
H         -4.03515        2.61002       -0.01168
H         -5.60934       -0.19146        1.44725
H         -3.64679       -1.21213        1.90723
H         -0.18412       -1.16550        1.84430
