67

C          0.63350       -0.34799        2.18046
C          0.17163        0.87428        1.37507
C          0.60492        0.89471       -0.18489
C         -0.49447        0.91974       -1.96284
C         -1.76427        1.64825       -2.70804
O         -1.83029        2.76511       -3.21094
O         -2.75825        0.79729       -3.02856
C         -1.26048        1.23906        1.40083
C         -1.44201        2.75457        1.63203
C         -0.55257        3.50070        0.61654
C         -0.60254        2.64696       -0.67286
C          1.07263        2.49392       -1.69219
C          1.17252        3.42819       -2.90466
C          2.41073        3.24226       -3.78212
C          2.96595        1.83610       -4.11489
C          3.30617        1.73790       -5.61945
C          3.88412        0.39232       -6.09560
O          3.26697        0.03985       -7.34551
C          3.83325       -0.81081       -5.13768
C          3.28964       -0.56303       -3.72468
C          2.21718        0.56497       -3.63813
C          1.05436        0.14630       -4.59030
C          1.76607        0.71529       -2.11376
C          0.80046       -0.86781       -1.53945
C         -0.85175       -0.70662       -0.54643
C         -1.54406        1.03389       -0.07571
C         -3.08387        1.00912       -0.20982
H          0.70263       -1.27231        1.60611
H          0.00007       -0.51803        3.05540
H          1.65166       -0.16469        2.54855
H          0.72682        1.67247        1.89355
H          1.27313        1.73340        0.00779
H          1.43658        0.18533       -0.08529
H          0.08962        1.23191       -2.81020
H         -0.75509       -0.05638       -2.40420
H         -3.35557        1.37946       -3.54849
H         -1.86047        0.63082        2.08368
H         -2.49271        3.03521        1.48297
H         -1.18011        3.03721        2.65638
H          0.46823        3.62719        0.98517
H         -0.95198        4.50684        0.44204
H         -1.28130        3.25623       -1.26842
H          1.85490        2.94133       -1.04490
H          1.18631        4.46075       -2.52494
H          0.30085        3.37075       -3.54864
H          2.22738        3.79840       -4.71114
H          3.23337        3.79498       -3.30349
H          3.94042        1.82254       -3.60086
H          4.04508        2.51683       -5.85364
H          2.42204        2.00298       -6.21551
H          4.93212        0.56130       -6.36443
H          2.48773       -0.51607       -7.17232
H          4.85448       -1.20296       -5.03714
H          3.26748       -1.63767       -5.58631
H          4.14026       -0.31046       -3.07562
H          2.89821       -1.50804       -3.32935
H          0.25434        0.88421       -4.66450
H          1.36327       -0.00299       -5.62102
H          0.62449       -0.81668       -4.30159
H          2.70199        0.69140       -1.52582
H          1.48897       -1.47559       -0.92751
H          0.58764       -1.50399       -2.40598
H         -0.79726       -1.33968        0.34137
H         -1.62458       -1.20041       -1.16012
H         -3.49301        1.99439       -0.44491
H         -3.41278        0.29482       -0.96655
H         -3.56779        0.64646        0.70481
