35

C          1.28466        0.10376       -0.04232
C          0.60298       -1.26141        0.03499
C          1.07606       -2.09998        1.23222
O          0.41993       -2.90078        1.88193
O          2.40152       -1.99167        1.46764
N         -0.88804       -1.27017       -0.07487
C         -1.57812       -1.94707       -1.11239
O         -2.80397       -1.94299       -1.24892
C         -0.84810       -2.61937       -2.21484
C         -1.15916       -2.22211       -3.52306
C         -0.52828       -2.82560       -4.60986
C          0.41640       -3.82714       -4.39318
C          0.70159       -4.25344       -3.09407
C          0.04778       -3.67275       -2.00346
C         -1.67865       -0.69991        0.99908
C         -2.82546       -1.36779        1.47121
C         -3.64310       -0.81697        2.46471
C         -3.32005        0.41448        3.01110
F         -4.11932        0.94036        3.95053
C         -2.18833        1.09120        2.57544
Cl        -1.78576        2.63517        3.22857
C         -1.37310        0.53801        1.57873
H          1.39388        0.57150        0.94070
H          0.75920        0.78046       -0.72263
H          2.30758       -0.01281       -0.42162
H          1.00665       -1.78878       -0.82773
H          2.56551       -2.62305        2.20153
H         -1.91043       -1.45291       -3.69384
H         -0.78156       -2.52029       -5.62222
H          0.91538       -4.29095       -5.24111
H          1.42524       -5.04968       -2.93590
H          0.24431       -4.04487       -1.00155
H         -3.10186       -2.34391        1.07589
H         -4.53067       -1.34272        2.80226
H         -0.55901        1.15082        1.22171
