62

C          1.75204        0.34178        0.09126
C          1.10996        0.40902       -1.28491
C          1.30477       -0.86308       -2.11754
C          0.56117       -2.10244       -1.60980
O         -0.86095       -1.95649       -1.77744
C         -1.55898       -1.51026       -0.71148
O         -1.10391       -1.37628        0.41950
C         -3.00745       -1.20755       -1.01686
C         -3.49273       -1.18703       -2.47387
C         -3.16815       -2.30481       -3.47830
C         -3.19489       -3.76351       -3.12027
O         -3.05143       -4.62563       -3.98029
O         -3.39125       -4.01912       -1.81015
C         -3.50340       -5.40996       -1.44032
C         -4.96928       -5.82738       -1.27478
C         -5.83279       -5.70285       -2.53445
C         -5.52545       -6.76378       -3.57985
O         -4.93302       -0.83704       -2.54874
C         -6.08386       -1.32805       -2.07158
C         -6.07274       -2.33022       -0.97260
O         -7.15384       -0.89081       -2.48937
C         -2.82525        0.05817       -3.12875
O         -1.63994        0.33167       -3.00767
O         -3.68326        0.78363       -3.89877
C         -3.14324        1.94043       -4.55989
C         -3.49432        3.21720       -3.79549
C         -2.93251        3.29872       -2.37302
C         -1.42291        3.48308       -2.32443
H          1.40124       -0.51756        0.66764
H          1.50798        1.24495        0.66026
H          2.84108        0.27792        0.00899
H          0.04809        0.64271       -1.17278
H          1.55122        1.25282       -1.82963
H          0.96199       -0.64853       -3.13759
H          2.37574       -1.08857       -2.18004
H          0.85015       -2.95920       -2.22881
H          0.83197       -2.36026       -0.58089
H         -3.58044       -1.90270       -0.40524
H         -3.20277       -0.21440       -0.58534
H         -3.86171       -2.20479       -4.32509
H         -2.15984       -2.15441       -3.88860
H         -2.96998       -6.06817       -2.13432
H         -2.99991       -5.51085       -0.47226
H         -5.01151       -6.85761       -0.90259
H         -5.42064       -5.19650       -0.50012
H         -6.88711       -5.80216       -2.24837
H         -5.73306       -4.70664       -2.97678
H         -5.82638       -7.75400       -3.22379
H         -6.07977       -6.55490       -4.50069
H         -4.46259       -6.80293       -3.82958
H         -6.16513       -1.82794       -0.00745
H         -6.91508       -3.01545       -1.11133
H         -5.18706       -2.94257       -0.98468
H         -2.06641        1.85198       -4.73969
H         -3.61538        1.97846       -5.54815
H         -3.15928        4.08635       -4.37351
H         -4.58708        3.28003       -3.72150
H         -3.39589        4.15255       -1.86421
H         -3.21787        2.41185       -1.79778
H         -1.14085        4.46703       -2.71127
H         -1.07097        3.41342       -1.28992
H         -0.89056        2.72917       -2.90839
