28

O          0.90144        0.61024       -1.68860
C          1.99441        0.41109       -1.17301
C          2.84902        1.57186       -0.78251
C          4.05004        1.39226       -0.21319
C          4.52135        0.07161        0.12240
C          3.72921       -0.97328       -0.13446
N          2.50237       -0.83951       -0.84278
C          1.63300       -2.09636       -0.98177
C          1.59467       -2.98014        0.35331
C          2.24478       -4.42585        0.30612
N          3.55900       -4.64866        1.05377
C          4.55163       -3.50240        1.00725
C          3.79363       -2.31424        0.47657
C          2.48478       -2.25483        1.32052
H          2.42487        2.55316       -0.94937
H          4.64101        2.24124        0.11461
H          5.40950       -0.02638        0.73731
H          0.61589       -1.80005       -1.25678
H          2.03049       -2.67597       -1.82677
H          0.56313       -3.03930        0.71521
H          2.36129       -4.76980       -0.72605
H          1.52729       -5.11235        0.77530
H          3.32116       -4.79028        2.03921
H          4.96927       -3.31550        2.00157
H          5.37955       -3.78968        0.34821
H          3.73744       -2.79736       -0.52183
H          2.10702       -1.24572        1.54428
H          2.55689       -2.73177        2.30422
