28

O         -0.15589        0.39343       -0.37492
C          0.22351        0.92883       -1.64271
C          1.27327        2.03382       -1.49434
O          2.58438        1.53627       -1.82194
C          3.27470        1.14999       -0.70996
C          4.09866        2.05486       -0.05344
C          4.80616        1.64181        1.07765
C          4.68796        0.32984        1.55303
O          5.38246        0.08052        2.70257
C          5.10121       -1.10986        3.44749
C          3.95035       -0.88958        4.43083
O          2.69399       -0.78170        3.76744
C          3.90166       -0.58098        0.84946
C          3.20780       -0.17629       -0.29297
H          0.65354        0.14037        0.10061
H          0.57949        0.10657       -2.27166
H         -0.68837        1.33783       -2.08711
H          1.06635        2.81518       -2.23339
H          1.24235        2.50020       -0.50077
H          4.19610        3.07499       -0.41493
H          5.44727        2.34811        1.59866
H          4.94238       -1.98161        2.80693
H          6.00666       -1.31989        4.02806
H          3.88197       -1.73746        5.11844
H          4.10161        0.02371        5.01511
H          2.71223        0.05997        3.27615
H          3.79602       -1.61630        1.15662
H          2.61380       -0.89595       -0.84787
