32

C          0.96265       -0.70554        0.00534
O          0.29080       -0.31259        1.20556
C          1.07105       -0.20192        2.31319
O          2.25651       -0.49436        2.37645
C          0.29313        0.37601        3.46333
C          0.80484        1.78733        3.77115
O          0.20605        2.71781        2.84610
C          0.86907        2.84379        1.59725
C          0.47164        2.32507        5.16590
C          0.56454        3.71058        5.39862
C          0.29039        4.26091        6.65386
C         -0.06972        3.44386        7.72178
O         -0.31852        4.10452        8.89221
C         -0.76183        3.31917        9.99098
C         -0.13767        2.06724        7.52181
C          0.13468        1.51433        6.25964
H          0.51175       -0.15305       -0.82430
H          0.80780       -1.77462       -0.15840
H          2.03248       -0.47451        0.01752
H         -0.77766        0.38241        3.22894
H          0.44309       -0.33112        4.28416
H          1.89938        1.83392        3.68940
H          1.92462        2.56096        1.64327
H          0.34860        2.24097        0.84961
H          0.80313        3.88827        1.28077
H          0.84140        4.38254        4.58786
H          0.35504        5.33694        6.79383
H         -1.69734        2.80039        9.75643
H          0.01347        2.61401       10.30774
H         -0.95837        3.99628       10.82788
H         -0.39683        1.38810        8.32731
H          0.07482        0.43417        6.17265
