52

C          1.21230       -0.63629       -0.08290
C          1.05835       -0.01886        1.29888
C          1.45252        1.46002        1.34996
C          0.65263        2.37895        0.41990
C         -0.86026        2.38184        0.66451
C         -1.28657        2.93884        2.02748
C         -0.91677        4.40808        2.26196
C         -1.50143        5.38402        1.23388
C         -3.03400        5.45108        1.21562
C         -3.67547        5.92407        2.52680
C         -3.17159        7.28095        3.02739
C         -3.53071        8.46013        2.11793
C         -5.00052        8.90004        2.15817
C         -5.61646        9.20872        3.53626
N         -5.29817       10.50986        4.15360
C         -5.98377       10.61416        5.44678
C         -3.87261       10.75436        4.33980
H          0.52632       -0.18392       -0.80527
H          0.98984       -1.70715       -0.04427
H          2.23484       -0.51448       -0.45390
H          0.02841       -0.15270        1.64708
H          1.69355       -0.57147        2.00136
H          1.36229        1.81296        2.38392
H          2.51544        1.55068        1.09309
H          1.04698        3.39767        0.51086
H          0.83747        2.09091       -0.62134
H         -1.34198        2.95622       -0.13486
H         -1.25515        1.36516        0.56143
H         -2.37083        2.81580        2.13117
H         -0.84577        2.33350        2.82806
H         -1.23835        4.69416        3.27010
H          0.17403        4.51479        2.26543
H         -1.08862        6.38161        1.42233
H         -1.14925        5.12219        0.23022
H         -3.34287        6.11355        0.39910
H         -3.44428        4.46697        0.96057
H         -4.76332        5.95754        2.39747
H         -3.49176        5.17560        3.30688
H         -3.54902        7.44716        4.04082
H         -2.08309        7.24969        3.14337
H         -2.87800        9.29766        2.37160
H         -3.27397        8.22419        1.07887
H         -5.12744        9.77135        1.50370
H         -5.60108        8.10162        1.70147
H         -6.70415        9.19603        3.38016
H         -5.41490        8.38874        4.23349
H         -5.62625        9.86343        6.16160
H         -5.82995       11.60698        5.88586
H         -7.06493       10.49179        5.32585
H         -3.35798        9.90602        4.80423
H         -3.40020       10.99858        3.38530
H         -3.69999       11.63507        4.97043
