73

C          0.93458       -0.66810        0.20668
C          0.46721       -1.10227        1.58166
C          0.69934       -0.06631        2.65403
O         -0.18756        0.38394        3.36421
O          2.01984        0.25441        2.76133
C          2.35676        1.05612        3.88760
C          2.25521        2.57578        3.75234
O          1.64019        3.19961        4.62335
C          2.98984        3.32524        2.60667
O          3.95164        4.30982        3.12078
C          3.74756        5.43626        3.83509
O          2.70943        5.81798        4.33177
C          5.04554        6.21811        3.86471
C          4.78573        7.71210        3.93890
C          3.93123        2.47771        1.69213
C          5.20163        1.89316        2.31173
C          4.27985        3.50720        0.59508
C          2.98317        4.32254        0.35374
C          3.19791        5.84694        0.14590
C          4.09360        6.05943       -1.08670
C          4.27985        7.52349       -1.42494
C          2.96296        8.26259       -1.61340
C          3.07323        9.46451       -2.22407
C          3.51221       10.51572       -1.22398
O          3.97683       11.58501       -1.59705
C          3.29859       10.22175        0.23375
C          2.60511        9.13204        0.62881
C          1.99552        8.16071       -0.40006
C          0.60444        8.80954       -0.71630
C          1.83745        6.61502        0.03901
Cl         0.81661        5.77817       -1.25853
C          1.10082        6.43417        1.39769
O         -0.24422        6.92545        1.33423
C          1.01810        5.01711        1.97706
C          2.00994        3.92992        1.50511
C          1.07262        2.82484        0.92288
H          0.35792        0.19287       -0.14557
H          0.79587       -1.47771       -0.51619
H          1.99372       -0.39233        0.20710
H         -0.60840       -1.31011        1.54228
H          0.96577       -2.02726        1.88788
H          1.75581        0.75253        4.75615
H          3.38331        0.81760        4.17828
H          5.64784        5.88090        4.71274
H          5.60150        6.01753        2.94050
H          4.31418        7.98186        4.88899
H          5.72224        8.27065        3.84861
H          4.11848        8.03258        3.13290
H          3.40935        1.63845        1.22653
H          4.99311        0.92893        2.78408
H          5.95266        1.69704        1.53828
H          5.65243        2.54364        3.06487
H          4.60983        3.00515       -0.32147
H          5.10312        4.15559        0.91976
H          2.58947        3.92461       -0.59091
H          3.73783        6.24684        1.01486
H          3.69089        5.52966       -1.95752
H          5.08662        5.63204       -0.89900
H          4.88345        7.59701       -2.33864
H          4.87038        7.99261       -0.62672
H          2.20940        9.91208       -2.71927
H          3.67593       10.96443        0.92602
H          2.38488        9.00807        1.68431
H         -0.02387        8.88272        0.17603
H          0.68601        9.84385       -1.07143
H          0.04612        8.27493       -1.48868
H          1.60394        7.04697        2.15047
H         -0.70948        6.40383        0.65141
H         -0.01177        4.66322        1.81798
H          1.01800        5.09280        3.06546
H          0.40403        3.23879        0.15825
H          1.61459        2.02218        0.42502
H          0.43265        2.39957        1.69817
