43

O          1.13589       -0.14530       -0.80742
C          2.30772        0.05353       -0.53548
O          3.09766        0.85437       -1.28704
C          3.01178       -0.54441        0.65898
C          2.37799       -0.07911        1.96446
C          1.14934       -0.84969        2.46110
C          1.05088       -2.38392        2.32389
C          1.79466       -3.42068        3.25788
C          1.30283       -3.22299        4.73572
O          0.75582       -4.04727        5.45635
O          1.50563       -1.99865        5.26418
C          1.32473       -4.89287        2.86518
C          0.24781       -5.15661        1.99330
C         -0.15225       -6.46479        1.69528
C          0.51869       -7.54748        2.24967
C          1.57134       -7.32351        3.12934
C          1.95264       -6.01623        3.45239
C          3.34618       -3.25593        3.11169
C          4.12238       -4.11245        2.30107
C          5.51268       -3.97389        2.19223
C          6.16355       -2.92583        2.82860
C          5.42616       -2.03733        3.59713
C          4.04684       -2.22074        3.75736
H          4.01455        0.93916       -0.96564
H          3.03592       -1.62983        0.54267
H          4.05979       -0.22294        0.65813
H          3.13994       -0.06673        2.74459
H          2.08331        0.97542        1.86376
H          0.93944       -0.54210        3.48954
H          0.29884       -0.45176        1.88777
H         -0.02413       -2.55757        2.47991
H          1.24676       -2.64192        1.27538
H          1.14501       -2.09481        6.17187
H         -0.32893       -4.36458        1.52524
H         -0.99654       -6.63203        1.03036
H          0.21163       -8.56116        2.00721
H          2.09272       -8.16656        3.57506
H          2.76144       -5.88209        4.16928
H          3.66859       -4.93244        1.74736
H          6.08297       -4.68988        1.60505
H          7.23810       -2.80242        2.72647
H          5.91794       -1.19626        4.07988
H          3.53220       -1.49354        4.37855
