66

C          2.10401        0.18263        0.17813
C          1.62166        0.01451       -1.25428
O          2.08031       -1.21384       -1.86609
C          3.33392       -1.11617       -2.37238
O          4.03794       -0.12968       -2.17008
C          3.88288       -2.34819       -3.16252
C          4.48789       -1.70810       -4.43022
C          5.83212       -1.77893       -4.77496
C          6.26501       -1.20977       -5.97782
C          5.36781       -0.57675       -6.84527
C          4.02449       -0.48989       -6.51447
C          3.59391       -1.03720       -5.31396
C          3.06995       -3.48326       -3.80726
C          2.31568       -4.32101       -2.83272
N          2.98651       -4.84274       -1.67747
C          1.92284       -5.40548       -0.80806
C          0.80760       -4.48735       -0.23762
C         -0.49612       -3.95386       -0.94095
C         -1.37721       -4.95100       -1.67567
N         -2.10815       -5.77820       -2.28518
C         -1.29104       -3.34464        0.29882
C         -0.86683       -2.11470        0.85309
C         -1.62432       -1.42837        1.80082
C         -2.77396       -2.01524        2.30649
C         -3.14251       -3.29046        1.87859
C         -2.41310       -3.95284        0.88067
C         -0.58394       -2.83957       -2.16501
C         -0.30407       -3.20244       -3.51410
C         -0.33972       -2.30278       -4.59090
C         -0.78454       -1.01161       -4.39296
C         -1.29409       -0.67844       -3.14967
C         -1.23273       -1.59020       -2.07517
C          3.85994       -3.83324       -1.05820
C          4.75546       -3.08117       -2.10057
H          1.95338       -0.72824        0.76290
H          1.56457        1.00441        0.66232
H          3.17187        0.40949        0.21647
H          0.53374       -0.00168       -1.23492
H          1.88701        0.88358       -1.86905
H          6.54993       -2.27164       -4.12776
H          7.31599       -1.26162       -6.24638
H          5.71854       -0.14652       -7.77870
H          3.31414       -0.00422       -7.17819
H          2.53328       -0.95502       -5.07138
H          2.34851       -3.12465       -4.54683
H          3.74620       -4.15289       -4.36214
H          1.59714       -3.64091       -2.42881
H          1.83049       -5.14488       -3.37003
H          1.44512       -6.25131       -1.32127
H          2.43640       -5.86267        0.04985
H          0.44119       -5.08154        0.61787
H          1.31557       -3.63388        0.22781
H          0.01668       -1.62790        0.45685
H         -1.33025       -0.42960        2.11483
H         -3.37985       -1.48274        3.03510
H         -4.02197       -3.76355        2.30918
H         -2.75862       -4.93518        0.56630
H         -0.05060       -4.22948       -3.77534
H         -0.02845       -2.62907       -5.58077
H         -0.79895       -0.29815       -5.21142
H         -1.75233        0.29684       -3.00121
H         -1.74683       -1.25863       -1.18051
H          4.51233       -4.32834       -0.33017
H          3.27602       -3.09516       -0.49828
H          5.42473       -3.80506       -2.58116
H          5.39614       -2.37147       -1.56293
