24

C          0.44166       -0.08763        0.15534
C          0.37752        1.41170       -0.06367
O          1.03974        1.83948       -1.24667
C          2.46176        2.02784       -1.25805
C          2.94812        2.88533       -0.07860
C          3.21041        0.68932       -1.27792
C          2.76160        2.81363       -2.56378
C          2.29695        2.12525       -3.84378
H          0.30169       -0.63188       -0.78341
H         -0.32867       -0.40139        0.86681
H          1.40411       -0.38702        0.57571
H         -0.67628        1.67686       -0.20755
H          0.70780        1.96431        0.81952
H          2.85826        2.35057        0.87305
H          4.00129        3.16358       -0.19443
H          2.35324        3.80113        0.01111
H          2.71997       -0.03488       -1.93678
H          4.24786        0.81685       -1.60601
H          3.25205        0.23825       -0.28248
H          2.25581        3.78730       -2.51741
H          3.83680        3.01692       -2.64361
H          1.21745        1.94705       -3.83390
H          2.52135        2.75886       -4.70829
H          2.80598        1.16905       -3.99447
