24

O          1.21705        0.24772        0.21085
C          2.42148        0.07563        0.09670
O          3.27081        0.28405        1.12628
C          3.10333       -0.35468       -1.18240
C          2.66800       -1.73772       -1.66789
C          1.19242       -1.85799       -2.06053
C          0.70609       -0.82271       -3.07089
C         -0.61674       -1.40049       -3.55644
C         -0.45736       -2.91866       -3.48018
C          0.87311       -3.17383       -2.77346
H          4.21141        0.13673        0.91769
H          2.92478        0.41658       -1.93903
H          4.18865       -0.37528       -1.02922
H          3.29430       -2.00085       -2.53011
H          2.88527       -2.48123       -0.89033
H          0.57013       -1.80064       -1.15812
H          0.57180        0.16962       -2.63042
H          1.40872       -0.73370       -3.90829
H         -0.86494       -1.05981       -4.56609
H         -1.42938       -1.08314       -2.89179
H         -0.46196       -3.37234       -4.47680
H         -1.28873       -3.35674       -2.91674
H          1.64141       -3.41068       -3.51999
H          0.81256       -4.01837       -2.07996
