37

C          0.75037       -0.19874        0.23207
C          0.29558       -0.22425       -1.23654
C          0.48772       -1.63462       -1.81347
C         -1.21162        0.10272       -1.27664
N          0.95232        0.81849       -2.03958
C          2.42266        0.89831       -2.04567
C          3.14583       -0.03790       -3.04154
O          2.73220        0.28008       -4.37830
C          4.66042        0.02269       -2.95784
C          5.35513        1.22604       -3.06024
C          6.74851        1.20865       -3.04367
C          7.41486       -0.00749       -2.96006
O          8.77700       -0.05292       -2.97413
C          6.66856       -1.17901       -2.87000
C          7.32101       -2.53611       -2.77660
O          7.11667       -3.10946       -1.48387
N          5.30630       -1.16885       -2.83426
H          0.15393       -0.89009        0.83857
H          0.63888        0.80143        0.66642
H          1.79661       -0.50256        0.34396
H         -0.22700       -2.34042       -1.37389
H          0.33220       -1.65017       -2.89837
H          1.48516       -2.02982       -1.59986
H         -1.41702        1.10031       -0.87040
H         -1.60381        0.06911       -2.30022
H         -1.78766       -0.61652       -0.68203
H          0.59753        0.83201       -2.99506
H          2.63513        1.93268       -2.34686
H          2.83863        0.80181       -1.03870
H          2.86620       -1.07736       -2.85687
H          1.92586       -0.23818       -4.53669
H          4.82649        2.16678       -3.17396
H          7.29111        2.14612       -3.11824
H          9.12611        0.85296       -3.02168
H          6.85706       -3.20262       -3.51254
H          8.39365       -2.51267       -2.98637
H          6.29455       -2.70736       -1.14858
