23

Cl         1.43336        1.45021        0.47071
C         -0.07435        0.63268        0.26905
C         -1.24558        1.38231        0.41203
C         -2.49767        0.77720        0.26004
C         -2.58168       -0.58505       -0.03792
O         -3.74674       -1.30399       -0.21510
C         -4.95161       -0.64331       -0.11258
C         -5.54229       -0.09296       -1.26053
Cl        -4.70453       -0.21129       -2.77815
C         -6.79339        0.53764       -1.16654
Cl        -7.51568        1.24673       -2.58286
C         -7.45795        0.59401        0.07502
Cl        -9.00679        1.38375        0.19648
C         -6.87521        0.01056        1.21790
Cl        -7.69924        0.06625        2.75029
C         -5.62349       -0.61794        1.11921
Cl        -4.88233       -1.37272        2.49759
C         -1.40921       -1.33424       -0.17942
C         -0.15720       -0.73085       -0.02728
Cl         1.24304       -1.72452       -0.21821
H         -1.18964        2.44414        0.64304
H         -3.37950        1.39804        0.38077
H         -1.47672       -2.39527       -0.41042
