24

O          1.20511        0.02193        0.07184
C          0.42882       -0.76871        0.86608
C          0.76441       -1.01487        2.19004
C         -0.06286       -1.83295        2.96259
C         -1.23326       -2.39603        2.42529
C         -1.54574       -2.15381        1.07589
C         -0.71213       -1.33048        0.30544
S         -2.98329       -2.84812        0.27691
C         -3.75214       -3.78913        1.58413
C         -4.94337       -4.46583        1.27921
C         -5.59686       -5.22958        2.24635
C         -5.06146       -5.32844        3.52573
C         -3.87725       -4.65790        3.83778
C         -3.21867       -3.86715        2.88160
N         -2.00466       -3.25009        3.23313
H          1.96580        0.33545        0.58773
H          1.65842       -0.58986        2.63486
H          0.21477       -2.03262        3.99442
H         -0.94517       -1.12688       -0.73662
H         -5.36821       -4.40457        0.27961
H         -6.51726       -5.75087        1.99647
H         -5.56036       -5.93139        4.28005
H         -3.46786       -4.75998        4.83943
H         -1.82165       -3.19285        4.22602
