26

O          0.98643        0.05943        0.31386
S          2.42723       -0.08566        0.19355
O          3.27590       -0.24534        1.35575
O          2.74042       -1.28542       -0.87510
C          2.58130       -2.58156       -0.46438
C          1.32229       -3.09797       -0.15794
C          1.19882       -4.43580        0.22326
C          2.33107       -5.24820        0.28100
Cl         2.17682       -6.89658        0.74835
C          3.58652       -4.73564       -0.04531
C          3.71135       -3.39840       -0.42719
C          3.00641        1.38648       -0.62906
C          3.97783        1.30002       -1.63148
C          4.40323        2.46613       -2.27294
C          3.85726        3.69968       -1.91196
Cl         4.38796        5.13094       -2.70510
C          2.88473        3.78146       -0.91451
C          2.45241        2.62075       -0.27017
H          0.43240       -2.47578       -0.21573
H          0.21937       -4.83764        0.46968
H          4.46758       -5.37067       -0.00438
H          4.68919       -2.99936       -0.68272
H          4.41437        0.34641       -1.91693
H          5.16046        2.40956       -3.05154
H          2.46112        4.74352       -0.63622
H          1.69176        2.68406        0.50596
