27

C          0.97715        0.09747        0.04041
C          0.51492       -1.26778       -0.40572
C          1.20911       -2.37407        0.10327
C          0.83411       -3.65934       -0.24821
C         -0.24299       -3.85372       -1.11093
C         -0.99448       -2.77961       -1.64605
C         -0.60593       -1.46216       -1.26508
C         -1.35774       -0.38245       -1.76175
C         -2.43814       -0.56883       -2.62196
C         -2.82100       -1.84759       -3.02106
C         -3.91009       -1.99864       -3.89774
C         -4.32566       -3.25874       -4.31737
C         -3.65611       -4.38263       -3.86188
C         -2.57140       -4.24204       -2.98997
C         -2.11280       -2.97527       -2.53969
H          0.37296        0.43893        0.88645
H          0.92464        0.83008       -0.76992
H          2.02716        0.07211        0.35386
H          2.05047       -2.23555        0.77873
H          1.37688       -4.51422        0.14582
H         -0.48905       -4.88321       -1.35369
H         -1.11792        0.64120       -1.48627
H         -2.97670        0.30695       -2.97766
H         -4.44675       -1.12592       -4.26431
H         -5.16793       -3.35903       -4.99610
H         -3.97044       -5.37286       -4.18109
H         -2.08410       -5.15753       -2.66827
