22

Cl        -1.68459       -1.87385        0.03452
C         -0.54691       -0.57437        0.01300
C          0.80634       -0.89407        0.13372
C          1.77114        0.11896        0.12853
Cl         3.42089       -0.35689        0.34886
C          1.40265        1.47079       -0.02051
C          2.38438        2.57270       -0.05359
C          2.47869        3.43859        1.05277
C          3.39839        4.49436        1.07111
Cl         3.42430        5.51016        2.46778
C          4.24764        4.69675       -0.01945
Cl         5.41307        5.97086       -0.06235
C          4.16345        3.85612       -1.13045
C          3.23338        2.81133       -1.15254
Cl         3.14846        1.85642       -2.59391
C          0.03163        1.77223       -0.13065
C         -0.93711        0.76129       -0.11056
Cl        -2.59312        1.23594       -0.23523
H          1.11124       -1.93289        0.23841
H          1.82887        3.28673        1.91398
H          4.81822        4.01748       -1.98385
H         -0.28626        2.80889       -0.23686
