13

C          0.99997       -0.00902       -0.03435
O          0.53462       -1.29399       -0.45146
C          0.94393       -1.65033       -1.68631
O          1.64560       -0.98471       -2.42783
C          0.41104       -3.04164       -2.07759
C         -0.44943       -3.79588       -1.10141
O          0.69507       -3.51268       -3.17561
H          0.61444        0.18045        0.97126
H          0.62233        0.77131       -0.70263
H          2.09370        0.00872        0.00513
H         -1.42128       -3.98761       -1.56464
H          0.03912       -4.74451       -0.86216
H         -0.62028       -3.25921       -0.16800
