17

O          1.07995       -0.29079        0.54314
C          2.23433       -0.06265        0.21641
O          2.96331       -0.88407       -0.56311
C          2.96177        1.11944        0.72856
C          3.95899        1.74625       -0.03249
C          4.63062        2.85329        0.49172
Br         5.98165        3.68318       -0.54502
C          4.30488        3.33879        1.76019
O          4.93698        4.41461        2.31670
C          3.29761        2.73723        2.50744
C          2.61726        1.63931        1.98533
O          1.61644        1.11746        2.76056
H          3.92554       -0.72578       -0.56252
H          4.19376        1.40124       -1.03582
H          5.59457        4.74286        1.67695
H          3.03464        3.12759        3.48702
H          1.07626        0.50207        2.21577
