28

C          0.76468        0.10309        0.18362
C          0.42267        0.23484       -1.27321
C         -0.24340       -0.81386       -1.92482
C         -0.53906       -0.74611       -3.29255
Cl        -1.39006       -2.08594       -3.97556
C         -0.15656        0.37011       -4.05182
C         -0.31875        0.45146       -5.55788
C          0.95175        0.07902       -6.30218
C          1.30265       -1.28332       -6.39821
C          2.49123       -1.68073       -7.01073
Cl         2.89708       -3.35041       -7.08466
C          3.35206       -0.73414       -7.55264
C          3.01587        0.61812       -7.48376
C          1.82691        1.02510       -6.86382
Cl         1.50155        2.72111       -6.83118
C          0.47222        1.43823       -3.38391
C          0.75501        1.37418       -2.01513
Cl         1.53655        2.73098       -1.28673
H          0.46012       -0.87154        0.58005
H          0.25485        0.87356        0.76981
H          1.84711        0.18638        0.32758
H         -0.52781       -1.70249       -1.36349
H         -1.13597       -0.18987       -5.90851
H         -0.65997        1.45891       -5.82357
H          0.64925       -2.04680       -5.98355
H          4.28075       -1.03915       -8.02707
H          3.69142        1.35505       -7.91284
H          0.76079        2.32889       -3.93918
