49

C          1.05215        0.52433       -0.17769
C          0.82666       -0.44458       -1.32852
C          1.24605       -1.88063       -1.00164
C          0.50180       -2.52320        0.17427
C         -1.01993       -2.59609        0.00801
C         -1.49419       -3.47576       -1.15509
C         -1.11788       -4.95777       -1.03383
C         -1.65697       -5.64818        0.22314
C         -3.18521       -5.73095        0.28692
C         -3.83379       -6.62762       -0.77793
C         -3.30685       -8.06268       -0.86104
C         -3.76831       -8.93356        0.27919
O         -4.43601       -9.95112        0.13971
O         -3.36960       -8.44421        1.47734
C         -3.87476       -9.09977        2.66069
C         -5.35528       -8.74997        2.91142
O         -6.23963       -9.48853        2.05997
C         -5.76452       -9.05824        4.35424
O         -5.03546       -8.26531        5.28259
H          0.42737        0.27780        0.68587
H          0.79868        1.54294       -0.48749
H          2.09964        0.51641        0.13978
H         -0.22467       -0.41196       -1.63431
H          1.40758       -0.10159       -2.19285
H          1.11823       -2.49738       -1.89892
H          2.32034       -1.89348       -0.77914
H          0.90657       -3.52879        0.33734
H          0.72692       -1.96913        1.09293
H         -1.45747       -2.95494        0.94640
H         -1.42642       -1.58755       -0.12611
H         -2.58270       -3.38126       -1.24155
H         -1.09354       -3.08823       -2.09863
H         -1.47398       -5.48534       -1.92627
H         -0.02675       -5.05984       -1.04909
H         -1.22267       -6.65125        0.29100
H         -1.29583       -5.12794        1.11702
H         -3.47434       -6.07330        1.28576
H         -3.61800       -4.72733        0.20515
H         -4.91483       -6.65177       -0.58945
H         -3.70637       -6.15564       -1.75941
H         -3.70482       -8.51512       -1.77850
H         -2.21849       -8.11892       -0.94448
H         -3.71715      -10.18083        2.57726
H         -3.25016       -8.73216        3.48133
H         -5.50834       -7.68461        2.70132
H         -5.74067       -9.82023        1.28454
H         -6.83224       -8.85362        4.49194
H         -5.61923      -10.12094        4.58314
H         -4.41032       -8.85038        5.74360
