18

C          1.10932        0.09092       -0.19327
O          0.41162        0.30938       -1.41188
C          0.80062        1.47575       -2.03050
N          2.05443        1.91650       -1.87254
C          2.35994        3.03523       -2.56112
C          1.49043        3.72330       -3.37427
N          1.84954        4.85543       -4.03753
C          0.88351        5.41992       -4.78695
C         -0.37925        4.87509       -4.86521
N         -0.72336        3.74613       -4.20384
C          0.20893        3.15222       -3.44879
N         -0.13037        2.04165       -2.79964
H          0.69840       -0.81238        0.26829
H          0.95263        0.92247        0.50311
H          2.17774       -0.08248       -0.36072
H          3.37963        3.38909       -2.43785
H          1.15188        6.32346       -5.32241
H         -1.16101        5.32891       -5.46422
