22

Cl        -2.73676        0.77057       -0.08086
C         -1.22974       -0.05761       -0.04106
C         -1.20526       -1.43759        0.13470
C          0.01795       -2.11290        0.17279
C          1.23346       -1.41657        0.03127
C          2.50323       -2.16903        0.07955
C          2.86564       -2.94323       -1.03508
C          4.05919       -3.66993       -1.05546
Cl         4.38574       -4.59887       -2.47839
C          4.93009       -3.63320        0.04121
Cl         6.41604       -4.53547       -0.00380
C          4.58529       -2.87004        1.17184
Cl         5.65585       -2.81612        2.54553
C          3.37092       -2.15107        1.19489
Cl         2.90512       -1.25588        2.61637
C          1.17830       -0.02105       -0.16519
Cl         2.61327        0.91686       -0.41125
C         -0.04473        0.65631       -0.19233
H         -2.13270       -1.99518        0.24607
H          0.01565       -3.19182        0.31930
H          2.20726       -2.97622       -1.90372
H         -0.07187        1.73302       -0.33458
