44

C          0.65393       -0.03753        0.29096
C         -0.07710       -0.60607        1.25975
C         -1.58083       -0.63053        1.29528
N         -2.18473       -1.93935        1.47992
C         -1.89687       -2.61088        2.74279
C         -1.28056       -3.93307        2.34131
C         -2.00912       -4.26993        1.05673
C         -2.22241       -2.91124        0.37170
C         -1.25939       -2.70314       -0.82078
N         -1.48213       -3.65942       -1.90290
C         -1.32947       -3.46407       -3.25025
O         -1.41662       -4.40172       -4.03631
C         -1.10729       -2.10705       -3.78001
C         -2.18859       -1.56534       -4.50935
C         -1.96544       -0.26412       -4.98232
N         -2.77934        0.53436       -5.69040
N         -2.03613        1.63624       -5.84319
N         -0.81075        1.67304       -5.30620
C         -0.71078        0.46012       -4.73955
C          0.35820       -0.10383       -4.02429
C          0.12980       -1.42084       -3.57780
O          1.17169       -1.97253       -2.86644
C          1.76244       -3.07959       -3.55173
H          0.19440        0.44423       -0.56641
H          1.73892       -0.05034        0.33379
H          0.44568       -1.05952        2.09796
H         -1.89854        0.01383        2.12554
H         -2.00049       -0.15685        0.39918
H         -2.84302       -2.78398        3.26933
H         -1.24691       -2.05207        3.42398
H         -0.20824       -3.81390        2.14530
H         -1.40905       -4.70517        3.10530
H         -1.44609       -4.99662        0.46512
H         -2.98214       -4.71678        1.29832
H         -3.24006       -2.89793       -0.04075
H         -1.38982       -1.69665       -1.22394
H         -0.21756       -2.82857       -0.50909
H         -1.55320       -4.64140       -1.66581
H         -3.11286       -2.10061       -4.68347
H         -2.39840        2.43507       -6.35863
H          1.28307        0.42710       -3.84538
H          1.37072       -4.01691       -3.14691
H          1.61399       -3.04196       -4.63720
H          2.83887       -3.05464       -3.35673
