19

O          0.73178        0.19271        0.01425
C          0.49075       -0.24659       -1.31865
C          1.14007        0.69151       -2.33899
C          2.65189        0.73104       -2.27506
C          3.41755       -0.44259       -2.33209
C          4.81157       -0.38432       -2.27318
C          5.45705        0.84562       -2.17524
C          4.70945        2.02050       -2.13977
C          3.31551        1.96352       -2.19120
H          1.69868        0.23486        0.13025
H          0.84109       -1.27869       -1.41498
H         -0.59384       -0.25234       -1.46773
H          0.84719        0.39468       -3.35293
H          0.74742        1.70248       -2.17154
H          2.93997       -1.41463       -2.42571
H          5.39471       -1.30133       -2.30907
H          6.54209        0.89000       -2.13330
H          5.21122        2.98219       -2.07395
H          2.75041        2.89344       -2.16455
