49

C          0.91673       -0.12486        0.18627
C          0.36808       -0.03541       -1.23634
C          0.78711       -1.13162       -2.24920
C          0.60936       -0.67917       -3.73681
C         -0.66439        0.06566       -4.02922
C         -0.89526        1.35290       -4.37751
C         -2.33429        1.73220       -4.69562
C         -2.40884        2.45358       -6.03203
C         -1.64271        3.76310       -5.94948
C         -0.28061        3.61684       -5.31032
C          0.60599        4.71195       -5.44205
C          1.85635        4.69918       -4.83426
O          2.79487        5.68999       -4.88155
C          2.44437        6.87645       -5.58049
C          2.21605        3.58948       -4.08303
C          1.33913        2.50763       -3.93530
C          0.07991        2.47828       -4.55000
C          2.25494       -1.49705       -2.13815
O          3.16067       -0.68184       -2.00563
C          2.51572       -2.96498       -2.31804
C          1.13376       -3.59738       -2.36930
C          0.11318       -2.50995       -2.02441
O         -0.37239       -2.71749       -0.70481
H          0.60551       -1.02749        0.71161
H          0.54584        0.72574        0.76938
H          2.00846       -0.07255        0.20576
H         -0.72748       -0.00067       -1.17908
H          0.67900        0.94450       -1.60677
H          1.48294       -0.12694       -4.09117
H          0.60906       -1.56788       -4.38537
H         -1.53572       -0.58950       -3.96750
H         -2.73100        2.36582       -3.89195
H         -2.98356        0.84938       -4.74589
H         -1.98909        1.82110       -6.82524
H         -3.45261        2.65313       -6.29978
H         -1.54041        4.17812       -6.95930
H         -2.21946        4.48194       -5.35308
H          0.27906        5.56945       -6.02209
H          2.27143        6.67209       -6.64202
H          1.57592        7.36228       -5.12344
H          3.28909        7.56830       -5.50769
H          3.18313        3.56221       -3.58584
H          1.68579        1.70990       -3.29300
H          3.11010       -3.34281       -1.48301
H          3.04668       -3.12424       -3.26182
H          1.08185       -4.44854       -1.67994
H          0.94906       -3.98793       -3.37614
H         -0.76522       -2.62011       -2.66968
H          0.36524       -2.94390       -0.11380
