23

C          1.03073       -0.18773        0.13984
C          0.57355        0.02398       -1.26854
C         -0.20629       -0.84399       -1.92809
C         -0.72361       -0.75238       -3.32535
O         -1.48970       -1.64829       -3.69485
C         -0.34824        0.37525       -4.28746
C         -0.94226        1.71091       -3.84618
C          1.15118        0.46688       -4.60175
C          1.69817       -0.80783       -5.23230
H          0.65489       -1.12401        0.56389
H          0.68453        0.63686        0.77046
H          2.12432       -0.21152        0.17477
H          0.92098        0.94321       -1.72409
H         -0.54002       -1.75176       -1.42827
H         -0.84991        0.12406       -5.23405
H         -0.49087        2.09270       -2.92781
H         -0.79993        2.47027       -4.62255
H         -2.01869        1.61350       -3.66644
H          1.31974        1.29404       -5.30264
H          1.74053        0.69726       -3.71086
H          1.17550       -1.03803       -6.16615
H          2.76169       -0.68673       -5.46183
H          1.59749       -1.66481       -4.55955
