17

N         -3.15832        1.20702        0.17954
C         -1.96493        0.57110        0.08964
N         -1.91533       -0.71917        0.08433
C         -0.67471       -1.33305       -0.01449
O         -0.56878       -2.55316       -0.09199
C          0.56043       -0.49202       -0.02542
N          1.78922       -1.08122       -0.05277
C          2.82919       -0.22112       -0.03653
C          2.65374        1.15402        0.00588
N          1.42917        1.73787        0.03011
C          0.37434        0.88780        0.01224
N         -0.91017        1.41088        0.01426
H         -3.29064        1.95566       -0.48969
H         -3.92379        0.53881        0.11913
H          3.81737       -0.66803       -0.05727
H          3.50211        1.83020        0.02031
H         -0.98567        2.40486        0.15574
