22

C          0.83111       -0.10411        0.17741
C          0.39345        1.24765        0.72601
C          1.00918        2.46001        0.01954
C          0.99982        2.38826       -1.50423
O          0.27552        3.64221        0.40195
C          1.15451        4.61267        0.78234
O          0.81778        5.75759        1.03372
N          2.40266        4.10553        0.85227
C          3.55260        4.85476        1.29007
C          2.39891        2.79067        0.52414
O          3.34291        2.01779        0.58806
H          0.46130       -0.25510       -0.84186
H          0.42271       -0.91063        0.79494
H          1.91988       -0.20518        0.16903
H         -0.70101        1.30974        0.67012
H          0.63338        1.28679        1.79669
H          1.66454        1.60455       -1.88077
H         -0.01383        2.20483       -1.87651
H          1.32745        3.33715       -1.94572
H          3.82981        5.55408        0.49525
H          3.29549        5.43168        2.18311
H          4.39534        4.19178        1.50102
