29

C         -0.21603        0.73840       -1.35896
C         -0.62704        1.62888       -0.44060
C         -1.84124        1.43533        0.40797
C          0.17603        2.86960       -0.27486
O          0.76803        3.42783       -1.18637
O          0.20079        3.22233        1.03333
C          1.07980        4.30840        1.39336
C          1.78112        3.97528        2.71736
O          3.08646        3.39332        2.52745
C          3.02248        2.05049        2.28059
C          3.14246        1.13774        3.32527
C          3.08410       -0.23137        3.05243
C          2.90703       -0.67783        1.74127
C          2.83904        0.24122        0.69640
C          2.93106        1.60479        0.96516
H         -0.75037       -0.19087       -1.52672
H          0.67253        0.91188       -1.96090
H         -1.59561        1.47582        1.47342
H         -2.58056        2.21243        0.18832
H         -2.31428        0.46514        0.22021
H          1.81842        4.52664        0.61435
H          0.43898        5.18508        1.53053
H          1.96747        4.91670        3.24690
H          1.15915        3.35047        3.37093
H          3.29076        1.48401        4.34348
H          3.18052       -0.95259        3.85972
H          2.84101       -1.74181        1.52994
H          2.71919       -0.09941       -0.32804
H          2.91566        2.31924        0.14749
