16

C          1.02386       -0.05300        0.07995
C          0.27263        0.88978        0.66748
C         -1.23765        0.94391        0.70121
C         -1.73186        0.88552        2.14806
C         -1.73186        2.21706        0.01139
O         -1.77393       -0.17871        0.00161
H          0.57190       -0.89125       -0.44244
H          2.10705       -0.00505        0.10983
H          0.78805        1.70367        1.17468
H         -1.36013        1.72825        2.74112
H         -2.82736        0.89493        2.18731
H         -1.41433       -0.04504        2.63359
H         -1.41433        2.24298       -1.03790
H         -2.82736        2.25644        0.00254
H         -1.36013        3.12074        0.50666
H         -2.74216       -0.11548        0.04102
