22

Cl        -2.08975        0.01027       -0.08766
C         -0.36952       -0.00427       -0.03741
C          0.30822       -1.21648        0.05707
C          1.70037       -1.22433        0.10876
C          2.40782       -0.01962        0.06640
C          1.73752        1.21100       -0.04360
C          2.48098        2.48511       -0.08479
C          2.31890        3.38602        0.98405
C          2.99249        4.60672        1.00937
C          3.85099        4.95443       -0.03345
Cl         4.64877        6.48562        0.08372
C          4.03664        4.08317       -1.11635
Cl         5.11226        4.52746       -2.40957
C          3.34637        2.85267       -1.14417
Cl         3.52878        1.78550       -2.51147
C          0.33329        1.20072       -0.08850
H         -0.23967       -2.15445        0.09027
H          2.23725       -2.16716        0.18004
H          3.49550       -0.04987        0.11236
H          1.66121        3.13400        1.81628
H          2.84373        5.28188        1.84983
H         -0.21685        2.13565       -0.16985
