29

C          0.61511       -0.62834       -0.14362
C          0.82480        0.73026       -0.78021
O          2.21952        0.96535       -0.84543
P          2.80209        2.47000       -0.98471
S          1.80382        3.72167       -2.08083
O          3.09904        2.90289        0.54339
C          2.13883        2.82509        1.57814
C          1.09237        3.91808        1.48699
O          4.30499        2.21848       -1.53762
C          4.93783        1.03366       -1.29620
N          5.74587        1.01242       -0.21527
C          6.43234       -0.13596       -0.00072
Cl         7.43739       -0.06349        1.39377
C          6.34757       -1.26212       -0.81746
Cl         7.22502       -2.71501       -0.52385
C          5.51346       -1.20135       -1.93243
C          4.80491       -0.03054       -2.18799
Cl         3.81167        0.06087       -3.59107
H          0.99206       -1.41875       -0.80118
H         -0.44450       -0.81092        0.05319
H          1.17171       -0.70628        0.79660
H          0.40671        0.74310       -1.79127
H          0.32745        1.50040       -0.18642
H          1.68085        1.83353        1.60767
H          2.68180        2.94124        2.52197
H          0.42152        3.75518        0.63979
H          0.47769        3.94032        2.39174
H          1.56037        4.89781        1.35044
H          5.42461       -2.05339       -2.60147
