22

Cl         3.08014       -0.03078       -0.27545
C          1.36711       -0.00993       -0.12061
C          0.69978        1.20438        0.00125
C         -0.68877        1.21750        0.13250
C         -1.40680        0.01498        0.14457
Cl        -3.12416        0.11985        0.33236
C         -0.74528       -1.22267        0.01801
C         -1.45678       -2.51549        0.01491
C         -2.20098       -2.88904       -1.12078
C         -2.88469       -4.10689       -1.16999
C         -2.83065       -4.98025       -0.08832
C         -2.09770       -4.63489        1.04575
C         -1.41870       -3.41186        1.10042
Cl        -0.54842       -3.05076        2.55318
C          0.65708       -1.21169       -0.11836
H          1.25155        2.14114       -0.00154
H         -1.20782        2.16795        0.23018
H         -2.25775       -2.22186       -1.97947
H         -3.46075       -4.36968       -2.05418
H         -3.36172       -5.92843       -0.12549
H         -2.06132       -5.32085        1.88829
H          1.19822       -2.15122       -0.21544
