17

C          1.06609       -0.21561        0.39176
O          0.50547       -1.30732       -0.32501
C          1.18780       -1.59927       -1.55091
C          0.63087       -0.81690       -2.75215
N          1.04092        0.60920       -2.78298
C          1.06275       -1.49325       -4.05236
O          0.35568       -1.65501       -5.03605
O          2.37144       -1.81620       -4.10205
H          0.77087       -0.31216        1.44039
H          0.66286        0.72859        0.02041
H          2.15915       -0.20871        0.34290
H          2.27205       -1.47596       -1.43783
H          1.02310       -2.66968       -1.72742
H         -0.46481       -0.85165       -2.71497
H          0.68883        1.02465       -3.64719
H          0.55061        1.09513       -2.03432
H          2.51039       -2.11357       -5.02503
