22

Cl        -1.71720       -1.86871       -0.05224
C         -0.56885       -0.57887       -0.03574
C          0.78458       -0.91494        0.01982
C          1.75930        0.08905        0.04026
Cl         3.41039       -0.41865        0.15321
C          1.40030        1.45111       -0.00214
C          2.38569        2.54668        0.01445
C          3.27742        2.73800       -1.05088
C          4.21831        3.77682       -1.02970
Cl         5.27617        3.90557       -2.39353
C          4.27989        4.65896        0.05673
Cl         5.44165        5.94697        0.08587
C          3.38324        4.48208        1.11865
Cl         3.36518        5.51956        2.50394
C          2.44856        3.43767        1.09525
C          0.02848        1.76689       -0.05583
C         -0.94934        0.76433       -0.07119
Cl        -2.60314        1.25840       -0.13208
H          1.08225       -1.96071        0.05399
H          3.24670        2.06663       -1.90862
H          1.76772        3.31496        1.93724
H         -0.28384        2.81027       -0.09129
