13

Cl         1.04795        0.15023       -0.16298
C          2.75441        0.10871       -0.13331
C          3.51454       -0.99325       -0.20406
Cl         2.94232       -2.59602       -0.33931
C          4.98134       -0.67097       -0.07029
Cl         6.04846       -1.69783       -1.07618
Cl         5.45917       -0.98300        1.64471
C          4.97148        0.84455       -0.47475
Cl         6.39192        1.78770        0.09648
Cl         5.02714        1.00190       -2.32740
C          3.58645        1.35119        0.05955
Cl         3.56879        1.75746        1.82067
Cl         2.94993        2.79408       -0.78777
