18

C          0.94475        0.18287       -0.01743
C          0.47951       -1.17873       -0.52354
C          0.84430       -2.39400        0.30674
C          1.57615       -2.28128        1.50215
C          1.90474       -3.40805        2.26225
C          1.50941       -4.67374        1.84462
C          0.78462       -4.81403        0.66451
C          0.45437       -3.68701       -0.09818
Br        -0.53888       -3.99458       -1.69277
H          0.52700        0.40658        0.96972
H          0.61477        0.96948       -0.70412
H          2.03675        0.23326        0.04635
H         -0.61321       -1.13798       -0.61141
H          0.89532       -1.31146       -1.52993
H          1.90738       -1.31348        1.87016
H          2.47120       -3.29265        3.18329
H          1.76453       -5.54905        2.43589
H          0.47941       -5.80732        0.34477
