28

Cl        -2.10820       -0.24900       -0.04294
C         -0.38600       -0.07249       -0.00426
C          0.37248       -1.24992        0.02683
C          1.76485       -1.19073        0.01668
C          2.40379        0.04383       -0.03213
C          1.64867        1.21926       -0.06630
C          0.23903        1.18602       -0.04426
C         -0.50970        2.43711       -0.06849
N         -1.32356        2.72759        0.96611
N         -2.00236        3.90728        0.94903
C         -1.82139        4.74121       -0.09473
C         -2.61891        5.96113       -0.16533
C         -3.46030        6.17271       -1.27804
C         -4.26295        7.31198       -1.37812
C         -4.23571        8.26989       -0.37050
C         -3.40215        8.09118        0.73223
C         -2.59873        6.94761        0.83548
Cl        -1.55856        6.84182        2.21555
N         -1.00485        4.45095       -1.13001
N         -0.31737        3.27647       -1.10769
H         -0.12032       -2.21919        0.05277
H          2.34898       -2.10766        0.04132
H          3.49026        0.09511       -0.04342
H          2.16962        2.17610       -0.10291
H         -3.50104        5.43212       -2.07711
H         -4.90953        7.44701       -2.24232
H         -4.85889        9.15800       -0.44437
H         -3.37766        8.85075        1.51039
