20

C          0.99110       -0.09971       -0.01975
C          0.34401        0.00294        1.35100
C          0.89241        1.15003        2.19434
C          0.77952        2.52540        1.55769
C          0.76817        3.42382        2.77216
C         -0.02024        2.59820        3.77216
O         -1.39894        2.90854        3.71026
O          0.15677        1.22418        3.42828
H          0.73676        0.76327       -0.64305
H          0.63867       -0.99781       -0.53685
H          2.08090       -0.15865        0.06108
H         -0.74258        0.10543        1.23997
H          0.49445       -0.93770        1.89567
H          1.93827        0.94687        2.45771
H          1.60135        2.74532        0.87035
H         -0.16448        2.62932        1.00976
H          0.33262        4.40591        2.56884
H          1.79628        3.55878        3.12834
H          0.31930        2.76648        4.79822
H         -1.68158        2.68820        2.80870
