23

C          0.96318       -0.18834        0.08814
C          0.58031        1.28436        0.04902
C          1.13488        2.02639       -1.17139
C          0.47307        1.60430       -2.45651
C         -0.37030        2.34656       -3.20111
C         -0.90236        1.70434       -4.43880
O         -1.68079        2.26286       -5.20258
C         -0.80642        3.75993       -2.91521
C         -1.81451        3.85301       -1.77742
H          0.54187       -0.73788       -0.75875
H          0.58437       -0.64991        1.00575
H          2.05091       -0.30954        0.07308
H         -0.51222        1.37371        0.08381
H          0.96576        1.76613        0.95548
H          1.01878        3.10245       -1.00559
H          2.21376        1.85026       -1.25787
H          0.72918        0.59572       -2.77920
H         -0.55291        0.67695       -4.63700
H          0.06914        4.37786       -2.68301
H         -1.24872        4.21746       -3.80784
H         -1.37545        3.54364       -0.82418
H         -2.15278        4.88770       -1.66017
H         -2.69217        3.22710       -1.96765
