31

O          0.81024       -0.36112       -0.09573
C          1.90295        0.18064       -0.03669
O          2.70166        0.43688       -1.15442
C          4.08146       -0.10928       -1.40045
C          5.36374        0.90346       -1.38952
C          5.89898        1.39371        0.10508
C          5.39411        3.09632        0.43778
C          4.15772        3.51625        1.65203
C          3.43945        2.16317        2.62006
C          4.18554        0.30213        2.32478
C          5.44953        0.03739        1.11896
C          2.40430        0.77240        1.23405
C          3.91280        1.54930        0.91465
C          5.29533        1.84113        2.35251
C          4.82203        1.36937        4.03395
C          3.19515        0.66800        4.26396
C          2.04502        0.37304        2.90771
H          4.22620       -0.99261       -0.77218
H          4.02551       -0.48921       -2.42800
H          6.22121        0.40192       -1.85024
H          5.12028        1.80580       -1.96102
H          5.64493        3.85913       -0.30175
H          3.78999        4.53097        1.76107
H          2.65122        2.51843        3.30118
H          3.93799       -0.66491        2.80062
H          5.72281       -0.98238        0.86250
H          3.81454        1.99288       -0.08950
H          6.28637        2.30457        2.27324
H          5.50917        1.50248        4.86168
H          2.90787        0.34116        5.26311
H          1.13827       -0.19414        3.11732
