14

C          1.02373       -0.13437        0.11789
C          0.51292        1.29925        0.10729
C          1.01428        2.10382       -1.09259
C          0.50989        1.59470       -2.43412
Br         0.41090        3.96251       -0.87998
H          0.62369       -0.70881       -0.72275
H          0.71270       -0.63681        1.03954
H          2.11683       -0.16236        0.06924
H         -0.58404        1.28800        0.13075
H          0.83753        1.78378        1.03703
H          2.10788        2.15838       -1.09330
H         -0.58438        1.54463       -2.45973
H          0.83055        2.24961       -3.25210
H          0.89947        0.59476       -2.64838
