43

C          0.65934       -0.71352       -1.01577
C          0.68518       -1.85569        0.01605
C          1.80876       -1.64757        1.09024
O          1.43561       -1.19075        2.38125
C          1.59616        0.11880        2.71330
C          2.01594        0.36193        4.02324
C          2.04333        1.66319        4.52745
C          1.62707        2.72527        3.72968
C          1.20497        2.48591        2.42342
C          1.20051        1.18460        1.91698
N         -0.65074       -2.33778        0.43481
C         -1.50161       -2.80967       -0.67161
C         -2.00438       -4.24037       -0.43706
Cl        -3.43584       -4.31130        0.61426
C         -1.39333       -1.52361        1.41459
C         -1.23527       -1.98685        2.85188
C         -0.88191       -3.30652        3.17080
C         -0.66560       -3.69164        4.49333
C         -0.82030       -2.76676        5.52173
C         -1.21327       -1.46248        5.22920
C         -1.43272       -1.07721        3.90414
H          0.00132        0.10669       -0.72538
H          0.31030       -1.07110       -1.99063
H          1.66636       -0.31395       -1.18282
H          1.09920       -2.69595       -0.56420
H          2.22326       -2.64762        1.28168
H          2.65096       -1.06694        0.69412
H          2.29169       -0.47332        4.66152
H          2.36224        1.84061        5.55109
H          1.61284        3.73578        4.12836
H          0.84922        3.30625        1.80672
H          0.81643        1.02907        0.92247
H         -2.32921       -2.12086       -0.88843
H         -0.92118       -2.85522       -1.60056
H         -2.29138       -4.69089       -1.39193
H         -1.22035       -4.86756        0.00105
H         -1.11903       -0.46707        1.31965
H         -2.47357       -1.55015        1.21849
H         -0.73272       -4.03712        2.38157
H         -0.35874       -4.70993        4.71214
H         -0.62844       -3.06210        6.54881
H         -1.32684       -0.73727        6.02997
H         -1.70773       -0.04613        3.69387
