18

C          0.88356        0.00247        0.13332
C          0.33759        1.37517        0.49308
C          0.93267        2.43865       -0.41630
C          0.47085        3.88155       -0.13595
O         -0.57733        4.47900       -0.05505
O          1.73032        4.36767       -0.00277
C          2.33009        3.04644       -0.14100
C          3.10398        2.69875        1.11707
H          0.62431       -0.26134       -0.89758
H          0.46271       -0.76055        0.79527
H          1.97339       -0.03172        0.22018
H         -0.75231        1.35868        0.37466
H          0.53770        1.59158        1.54778
H          0.77910        2.18925       -1.47540
H          2.98164        3.01333       -1.02383
H          3.43887        1.65792        1.09543
H          3.99356        3.33144        1.20394
H          2.50202        2.84820        2.01920
