27

O          1.12765       -0.02035        0.05036
C          2.35523       -0.08243       -0.04739
C          2.99383       -1.39965       -0.28573
C          3.92047       -1.85670        0.67027
C          4.59007       -3.06549        0.48701
C          4.31129       -3.84696       -0.62998
C          3.36010       -3.42408       -1.56175
C          2.69613       -2.20020       -1.39620
I          1.35333       -1.64696       -2.90702
N          3.15283        1.02582        0.22343
O          2.43070        2.11981        0.77688
C          4.53598        1.25157        0.04228
C          5.20363        2.14068        0.89632
C          6.58853        2.30836        0.81490
C          7.31890        1.61641       -0.14734
C          6.66230        0.77464       -1.04060
C          5.27849        0.59820       -0.94967
H          4.14223       -1.26075        1.55420
H          5.32957       -3.39312        1.21413
H          4.83304       -4.79013       -0.77614
H          3.15420       -4.05965       -2.42066
H          1.50432        1.82705        0.63745
H          4.65518        2.67496        1.66920
H          7.09471        2.97189        1.51128
H          8.39695        1.74109       -0.20748
H          7.22517        0.25368       -1.81119
H          4.79965       -0.03674       -1.68845
