15

S          0.92133        0.02924       -0.24351
C          2.60547       -0.04060       -0.06636
N          3.34225        1.14073       -0.01237
C          4.61669        1.06427        0.17665
N          5.34882       -0.06352        0.32906
C          4.71477       -1.29331        0.24141
N          5.46218       -2.41682        0.35195
C          4.78310       -3.58577        0.24744
C          3.41350       -3.64060        0.04134
N          2.65419       -2.52928       -0.06687
C          3.33300       -1.35382        0.03809
H          5.22086        1.98552        0.22519
H          6.34875       -0.07891        0.46248
H          5.37711       -4.48954        0.33367
H          2.88865       -4.58620       -0.04317
