85

C          1.10764       -0.33126       -0.27853
C          0.72388       -0.69147        1.14789
C          1.07620        0.39078        2.17009
C          0.42132        1.75705        1.94510
C         -1.10779        1.76033        1.84120
C         -1.86777        1.16890        3.03139
C         -1.54136        1.76494        4.39866
C         -1.64436        3.28314        4.51287
N         -2.98827        3.81245        4.34124
C         -3.66401        4.77673        5.01311
O         -4.88460        4.83650        4.86888
N         -3.06303        5.59330        5.91762
C         -1.70129        5.83281        6.11357
C         -1.16476        5.55766        7.36858
C          0.21837        5.46582        7.50804
C          1.07346        5.75744        6.43253
C          2.56401        5.52298        6.56056
C          3.36349        6.55200        7.32643
C          4.71692        6.72469        7.00284
C          5.47231        7.72222        7.62025
C          4.87584        8.57938        8.54055
N          5.50192        9.73791        9.00856
C          6.31528       10.62664        8.39112
O          6.96157       11.42124        9.07791
N          6.35954       10.76753        7.04566
C          5.47186       10.25452        6.01562
C          5.39581       11.10925        4.75414
C          6.71295       11.30495        3.99772
C          7.53716       10.04660        3.70288
C          6.82608        8.91879        2.94781
C          6.20606        9.29481        1.59970
C          7.15240        9.94262        0.58754
C          8.32775        9.06068        0.19698
C          3.59228        8.30409        8.99993
C          2.83620        7.30704        8.38306
C          0.51584        6.19649        5.22277
C         -0.87072        6.21596        5.05774
H          0.54408        0.53327       -0.64101
H          0.89210       -1.17070       -0.94738
H          2.17581       -0.10461       -0.35265
H         -0.34579       -0.92226        1.19104
H          1.24968       -1.61258        1.42743
H          0.81723        0.02319        3.16981
H          2.16498        0.53098        2.17463
H          0.73508        2.42513        2.75605
H          0.82726        2.20295        1.02871
H         -1.43955        2.79360        1.68242
H         -1.41033        1.21615        0.93873
H         -2.94244        1.27689        2.84301
H         -1.68139        0.08924        3.07981
H         -2.19911        1.30474        5.14652
H         -0.51958        1.47633        4.67596
H         -1.28178        3.51678        5.51175
H         -1.00262        3.77556        3.77803
H         -3.59905        3.31759        3.70455
H         -3.69628        5.83360        6.66959
H         -1.80429        5.27313        8.19899
H          0.62958        5.12012        8.45425
H          2.72892        4.53735        7.01372
H          2.97526        5.45185        5.54299
H          5.18548        6.11054        6.23620
H          6.51395        7.85589        7.33839
H          5.26109       10.04306        9.94309
H          6.98883       11.51486        6.78354
H          5.83653        9.26901        5.73099
H          4.46321       10.15598        6.42799
H          4.66699       10.64540        4.07773
H          4.99182       12.09587        5.01122
H          6.49002       11.82085        3.05618
H          7.34570       11.99515        4.56909
H          8.42760       10.34903        3.13832
H          7.91982        9.63918        4.64685
H          7.54525        8.10391        2.79657
H          6.03666        8.49450        3.57882
H          5.78214        8.38526        1.15445
H          5.35912        9.97009        1.76721
H          6.57840       10.17610       -0.31747
H          7.52493       10.89811        0.97133
H          7.98388        8.10261       -0.20522
H          8.92618        9.55599       -0.57460
H          8.98437        8.86340        1.04917
H          3.12805        8.91727        9.76730
H          1.81247        7.17610        8.71807
H          1.15112        6.46008        4.37976
H         -1.29776        6.47887        4.09262
