33

C          1.03580       -0.02515        0.08008
C          0.54136        0.59580       -1.25170
C         -0.47949        1.67702       -0.85545
C          1.68871        1.10283       -2.16618
C          2.48929       -0.17414       -2.50808
C          1.40320       -1.25747       -2.52493
C          0.07937       -0.44025       -2.34032
C         -1.05759       -1.37382       -1.94711
C         -0.14990        0.44778       -3.64361
N          0.03433       -0.29920       -4.91474
C         -1.54033        1.14112       -3.77024
O         -1.73715        2.29967       -4.12252
O         -2.59763        0.32140       -3.62618
C          0.96970        1.52275       -3.47152
H          0.37101       -0.82712        0.41508
H          1.06144        0.72164        0.88262
H          2.04908       -0.43069        0.03334
H         -1.35115        1.22778       -0.36767
H         -0.03099        2.38390       -0.14651
H         -0.84275        2.29147       -1.67652
H          2.30957        1.89805       -1.74656
H          3.25141       -0.39548       -1.75428
H          3.00385       -0.10096       -3.47215
H          1.43031       -1.86514       -3.43347
H          1.56135       -1.95734       -1.69498
H         -0.75438       -2.07029       -1.15825
H         -1.92157       -0.82502       -1.56193
H         -1.38089       -1.97987       -2.79992
H         -0.14258        0.33680       -5.69483
H          1.00824       -0.57669       -5.01833
H         -3.36485        0.87677       -3.87192
H          1.66776        1.54925       -4.31716
H          0.57488        2.53915       -3.37203
