56

C          0.88896        0.71029       -0.41314
C          0.24407        0.60101       -1.78852
C          0.55929       -0.70467       -2.52353
C          0.22763       -1.99011       -1.75283
C         -1.25798       -2.25988       -1.39454
C         -2.13099       -2.25826       -2.67746
C         -1.76593       -3.32591       -3.70812
C         -1.53510       -3.57931       -0.59331
O         -0.99305       -3.68835        0.72703
P          0.73695       -3.68835        0.72702
O          0.73671       -2.37326        1.51280
O          0.73559       -4.79730        1.92714
O          2.46695       -3.68836        0.72702
C          2.99769       -4.28254       -0.46985
C          2.86067       -5.82974       -0.61409
C          1.42947       -6.40189       -0.80420
C          0.74929       -6.07038       -2.12516
C          3.70864       -6.33448       -1.81192
C          5.21191       -6.45616       -1.57275
C          5.62020       -7.41117       -0.44855
C          4.99598       -8.79625       -0.54919
H          0.40338        0.04296        0.30422
H          0.78862        1.72970       -0.02731
H          1.95539        0.46486       -0.44963
H         -0.83918        0.72795       -1.69309
H          0.60650        1.43296       -2.40455
H          0.06761       -0.70213       -3.50149
H          1.63743       -0.71907       -2.73704
H          0.62416       -2.83273       -2.32499
H          0.83317       -1.93042       -0.85655
H         -1.59114       -1.43186       -0.75643
H         -3.18276       -2.39178       -2.39824
H         -2.07590       -1.27594       -3.15992
H         -1.90697       -4.33519       -3.31090
H         -2.40619       -3.22890       -4.59072
H         -0.73056       -3.23311       -4.04898
H         -2.61930       -3.68345       -0.47135
H         -1.20414       -4.45164       -1.15661
H          0.73017       -4.27780        2.75602
H          2.55931       -3.77576       -1.33430
H          4.06102       -4.02263       -0.46791
H          3.22505       -6.27100        0.32063
H          1.48844       -7.49718       -0.73474
H          0.77141       -6.12331        0.01440
H          1.23894       -6.56190       -2.97033
H         -0.28761       -6.42350       -2.10824
H          0.74108       -4.99797       -2.31464
H          3.34781       -7.31877       -2.13800
H          3.54915       -5.66868       -2.67082
H          5.66702       -6.80995       -2.50748
H          5.64236       -5.46770       -1.38098
H          6.71116       -7.51700       -0.47122
H          5.37212       -6.97274        0.52382
H          5.17539       -9.24223       -1.53254
H          5.42659       -9.45835        0.20857
H          3.91564       -8.76322       -0.37651
