42

C          1.37043       -0.23117       -0.30455
C          0.44232        0.40410        0.69002
C         -0.63125        1.28650        0.11051
C          0.57424        0.26275        2.02360
C          1.71253       -0.37099        2.77454
C          2.77652        0.66391        3.19889
C          2.40402        1.60875        4.33465
C          2.85236        1.19237        5.71603
C          1.80203        2.81159        4.20086
C          1.31862        3.48427        2.94449
C         -0.21350        3.58759        2.87308
C         -0.89703        4.59499        3.81688
C         -0.53435        6.03023        3.42781
C         -2.42978        4.43460        3.76535
C         -2.90467        3.13377        4.37079
O         -3.52215        3.06680        5.42658
H          1.07126        0.00304       -1.33224
H          1.33881       -1.32164       -0.20523
H          2.39815        0.11673       -0.17027
H         -1.40755        1.53264        0.84218
H         -0.18159        2.22818       -0.22786
H         -1.12013        0.81308       -0.74534
H         -0.17157        0.70264        2.67564
H          1.31421       -0.89523        3.65152
H          2.19251       -1.13533        2.15259
H          3.67438        0.10618        3.49849
H          3.10045        1.24314        2.32563
H          3.43926        1.99225        6.18406
H          1.98996        0.97082        6.35213
H          3.49084        0.30396        5.69347
H          1.64729        3.40265        5.10457
H          1.77818        4.47500        2.87311
H          1.66610        2.93882        2.06178
H         -0.49404        3.82439        1.83923
H         -0.63008        2.60418        3.08571
H         -0.56541        4.41356        4.84636
H         -0.79653        6.23174        2.38293
H         -1.06940        6.75219        4.05327
H          0.53537        6.21972        3.55213
H         -2.91359        5.24463        4.32384
H         -2.80070        4.48079        2.73514
H         -2.67559        2.21916        3.79654
