17

O          1.02275        0.11003       -0.03258
C          2.23924        0.05869        0.01225
O          2.98195        0.72991        0.91688
C          3.04866       -0.69476       -0.97301
C          2.60172       -0.74028       -2.30378
C          3.33036       -1.43974       -3.27062
C          4.49640       -2.09386       -2.89238
O          5.25584       -2.79414       -3.78701
C          4.92690       -2.06059       -1.56667
O          6.06890       -2.71526       -1.20435
C          4.21138       -1.37456       -0.59584
H          3.94234        0.72904        0.74533
H          1.68160       -0.22929       -2.58483
H          2.97211       -1.46224       -4.29510
H          4.82291       -2.75028       -4.65766
H          6.38820       -3.13532       -2.02898
H          4.55086       -1.40360        0.43486
