22

C          1.00087       -0.07130        0.27334
C          0.61954        1.38737        0.47485
C          1.10072        2.30317       -0.65342
C          0.52465        1.99805       -2.04022
C         -1.00323        2.07223       -2.15071
C         -1.62710        3.42402       -1.79519
N         -1.18546        4.48675       -2.69042
H          0.49471       -0.50280       -0.59505
H          0.71354       -0.65979        1.15062
H          2.08130       -0.17874        0.13375
H         -0.46536        1.46935        0.60053
H          1.06641        1.73496        1.41424
H          0.87497        3.34137       -0.38362
H          2.19465        2.24081       -0.71497
H          0.97574        2.68978       -2.76186
H          0.84630        0.99820       -2.35513
H         -1.28521        1.81035       -3.17900
H         -1.45285        1.30124       -1.51393
H         -2.71658        3.33846       -1.87306
H         -1.40318        3.69649       -0.75891
H         -1.63288        5.36233       -2.42121
H         -0.18395        4.63751       -2.58224
