15

N          1.00517        0.00650        0.08938
C          0.35524        0.74396        1.01303
N          0.59965        1.98218        1.26201
C         -0.27387        2.43618        2.38008
C         -0.67553        3.88095        2.15727
O         -0.57266        4.78508        2.97318
O         -1.23274        4.12205        0.95166
C         -1.51190        1.55988        2.47784
S         -0.93027       -0.03890        1.88001
H          0.47722       -0.76500       -0.29693
H          1.51068        0.56178       -0.58982
H          0.31327        2.39327        3.30664
H         -1.39035        5.08860        0.95232
H         -1.88229        1.48956        3.50471
H         -2.33106        1.90388        1.83830
