32

C          1.18585        0.18051        0.01742
C          0.68964        0.65829       -1.33897
C          1.07629       -0.27144       -2.49244
C          0.51640       -1.69839       -2.40393
C         -1.02323       -1.80873       -2.38371
C         -1.63142       -1.28338       -3.69133
C         -1.49066       -3.26806       -2.16711
C         -1.10887       -3.90887       -0.81594
C         -1.67306       -3.13937        0.37901
C         -1.60747       -5.35661       -0.77234
H          0.72460       -0.76758        0.30554
H          0.93831        0.91611        0.78932
H          2.27234        0.04721        0.01267
H         -0.39611        0.79751       -1.30481
H          1.12033        1.64764       -1.53472
H          0.76829        0.19021       -3.43722
H          2.17118       -0.33719       -2.53661
H          0.90246       -2.26826       -3.25919
H          0.94135       -2.17339       -1.51462
H         -1.42496       -1.19552       -1.57162
H         -1.23760       -1.82479       -4.55805
H         -2.72082       -1.39987       -3.68785
H         -1.42380       -0.21823       -3.82987
H         -2.58442       -3.30353       -2.26720
H         -1.09087       -3.89016       -2.97898
H         -0.01776       -3.94189       -0.72177
H         -2.76227       -3.04512        0.31215
H         -1.43555       -3.65182        1.31751
H         -1.24859       -2.13434        0.44622
H         -1.18930       -5.93788       -1.60068
H         -1.30569       -5.84313        0.16141
H         -2.69982       -5.40358       -0.84057
