30

C          0.83039        0.79207       -0.00728
C          0.37513       -0.20595        1.04011
O          0.97663        0.01566        2.31411
P          2.70663        0.01566        2.31411
S          2.56341        1.61522        3.54857
O          2.72619       -1.43175        3.09745
C          1.65003       -2.31599        3.33382
C          0.91262       -1.97072        4.61267
O          4.43663        0.01566        2.31411
C          5.24970        0.06174        3.43600
C          5.07424       -0.77151        4.54514
C          5.84628       -0.60249        5.70013
Cl         5.50740       -1.64086        7.04095
C          6.83559        0.38233        5.73635
Br         7.90619        0.69926        7.27196
C          7.06394        1.17591        4.60880
C          6.27911        1.01162        3.46254
Cl         6.59724        2.02424        2.09998
H          0.67872        1.81913        0.33601
H          0.28039        0.64186       -0.94125
H          1.89704        0.67421       -0.22401
H         -0.70810       -0.13063        1.17597
H          0.59836       -1.22232        0.70299
H          0.97853       -2.38625        2.47763
H          2.08688       -3.31429        3.44856
H          0.46636       -0.97396        4.56822
H          0.11524       -2.69552        4.80210
H          1.59994       -1.97363        5.46456
H          4.32920       -1.55659        4.55632
H          7.84094        1.93642        4.62590
