23

C          0.98574       -0.26410        0.51155
N          0.30120       -1.43919       -0.00653
C         -1.14214       -1.25423       -0.06261
C          0.88387       -2.00420       -1.22567
C          0.51066       -1.41730       -2.59705
C          0.97634        0.00356       -2.88711
N          2.41365        0.15027       -2.82516
C          3.09866        1.06656       -3.56962
O          4.25733        1.37773       -3.33412
H          0.65303       -0.05601        1.53497
H          0.80387        0.63482       -0.08194
H          2.06703       -0.43021        0.56741
H         -1.43244       -0.44192       -0.73746
H         -1.63972       -2.17392       -0.38979
H         -1.53740       -1.02372        0.93315
H          1.97590       -2.04702       -1.12685
H          0.57871       -3.05954       -1.24967
H          0.93987       -2.07879       -3.36174
H         -0.57546       -1.46914       -2.73840
H          0.64395        0.29042       -3.89196
H          0.53177        0.72709       -2.19979
H          2.91289       -0.14379       -1.99327
H          2.52451        1.48217       -4.41341
