16

N          2.33546       -0.00200       -0.17127
C          0.94768        0.00298       -0.00229
C          0.23247       -1.19881       -0.03642
C         -1.16571       -1.20346       -0.00434
C         -1.85650        0.01311        0.01824
N         -3.32407        0.01838        0.04126
O         -3.90508       -1.07645        0.04788
O         -3.89702        1.11747        0.05561
C         -1.15694        1.22465       -0.00396
C          0.24116        1.20992       -0.03607
H          2.79301       -0.84621        0.15936
H          2.79909        0.83880        0.15954
H          0.76195       -2.14736       -0.09045
H         -1.69247       -2.15514       -0.01417
H         -1.67682        2.18011       -0.01353
H          0.77749        2.15463       -0.08985
