26

N         -3.28344        0.39296        0.74382
C         -1.99001        0.16499        0.24558
C         -1.14405        1.29127        0.19341
C          0.21707        1.18092       -0.09719
C          0.77064       -0.07258       -0.30790
Cl         2.45333       -0.22055       -0.63031
C         -0.02718       -1.20887       -0.23302
C         -1.40514       -1.10746        0.05254
C         -2.11582       -2.41754        0.15381
O         -1.48702       -3.44044        0.42522
C         -3.56785       -2.56490       -0.03108
C         -4.28639       -3.09653        1.05037
C         -5.67223       -3.22463        0.97469
C         -6.34225       -2.83635       -0.18402
C         -5.62526       -2.33852       -1.27574
C         -4.23366       -2.21061       -1.20907
Cl        -3.41127       -1.61880       -2.60518
H         -3.63191        1.33225        0.56957
H         -3.99551       -0.29365        0.53949
H         -1.54446        2.28167        0.40281
H          0.83680        2.07295       -0.12930
H          0.42749       -2.18777       -0.37844
H         -3.76199       -3.40396        1.95402
H         -6.22630       -3.63053        1.81838
H         -7.42414       -2.93573       -0.24299
H         -6.16113       -2.05871       -2.18024
