23

N          0.97044       -0.13720       -0.06326
S          0.28716       -0.29279       -1.59310
O          0.87198       -1.48515       -2.16163
O         -1.13545       -0.12577       -1.42406
C          0.83812        1.10978       -2.52672
C          0.50748        2.44867       -2.43711
C          1.21760        3.26790       -3.37874
C          2.04726        2.49214       -4.16126
S          2.00674        0.84347       -3.74099
S          3.05188        3.09972       -5.46114
C          2.12292        4.61763       -5.83312
C          1.89546        5.44254       -4.57404
C          1.04273        4.75380       -3.50027
O          1.32431        5.38656       -2.24883
H          0.31360       -0.50026        0.62914
H          1.86146       -0.63490       -0.04068
H         -0.21451        2.82519       -1.71985
H          1.17271        4.35150       -6.30770
H          2.70383        5.19871       -6.55642
H          2.86004        5.76057       -4.15612
H          1.39180        6.37833       -4.85318
H         -0.01470        4.94868       -3.71720
H          2.22482        5.11479       -1.99537
