23

N          0.92884        0.02384        0.06917
S          0.28475       -0.85284       -1.21505
O          0.99941       -2.10637       -1.21795
O         -1.14974       -0.75918       -1.09584
C          0.71048        0.03677       -2.69212
C          0.55908        1.37045       -3.03388
C          1.08453        1.66847       -4.33055
C          1.58759        0.53417       -4.92629
S          1.44154       -0.85191       -3.95983
S          2.35615        0.38213       -6.50670
O          1.67839       -0.69234       -7.19582
O          3.77681        0.39917       -6.23828
C          1.87698        1.93854       -7.23425
C          1.98873        3.10161       -6.25838
C          1.13384        2.96535       -5.00110
O          0.57229        3.94516       -4.51899
H          0.25598        0.02099        0.83817
H          1.81535       -0.40200        0.34731
H          0.11079        2.10146       -2.36836
H          0.84904        1.82647       -7.59323
H          2.53283        2.09741       -8.09643
H          3.02703        3.24190       -5.93727
H          1.67413        4.01692       -6.77388
