34

C          1.20177       -0.37493       -0.29895
C          1.05670       -1.09183        1.03544
C          1.44705       -0.23420        2.24443
C          0.68657        1.08689        2.39032
C         -0.83196        0.94185        2.48950
C         -1.34583        0.39033        3.82504
C         -1.17334        1.30907        5.04318
C         -1.61625        2.77088        4.89598
O         -3.03075        2.95063        4.87892
C         -3.67863        2.81036        3.61943
C         -3.65148        4.04878        2.71291
O         -2.37412        4.66497        2.58153
H          0.50372        0.46326       -0.38502
H          0.98813       -1.06500       -1.12160
H          2.21908        0.00621       -0.43149
H          0.02956       -1.45730        1.14242
H          1.69646       -1.98223        1.02399
H          1.31860       -0.83200        3.15406
H          2.51799       -0.00484        2.17869
H          1.06833        1.62344        3.26652
H          0.91792        1.72728        1.53048
H         -1.27176        1.92189        2.29303
H         -1.20520        0.30351        1.68177
H         -2.40814        0.14190        3.71980
H         -0.85382       -0.56601        4.03934
H         -1.72440        0.85875        5.87857
H         -0.11408        1.30208        5.32744
H         -1.26766        3.30014        5.79124
H         -1.12064        3.26077        4.05715
H         -3.30653        1.94243        3.08138
H         -4.73030        2.58922        3.83747
H         -3.98758        3.76420        1.70879
H         -4.34292        4.80446        3.09091
H         -1.78244        4.04614        2.14377
