40

C          1.17117        0.02360        0.21839
C          0.50185       -1.34196       -0.00355
C          1.14417       -2.35977        0.94658
C         -1.04690       -1.28438        0.11539
C         -1.60994       -1.44313        1.52801
N         -1.53183        0.02612       -0.43474
C         -2.36004       -0.28969       -1.38104
C         -3.02232        0.69232       -2.25092
N         -4.37593        0.75119       -2.11573
C         -5.02215        1.73268       -2.77200
C         -6.39381        1.87942       -2.61322
C         -7.10730        2.88667       -3.27176
C         -6.44394        3.76856       -4.11728
C         -5.06768        3.65004       -4.29205
C         -4.35170        2.64655       -3.61864
C         -2.96359        2.52713       -3.76112
C         -2.27978        1.53231       -3.06474
C         -0.82725        1.41788       -3.25175
O         -0.07286        2.34351       -3.48525
O         -0.41504        0.14026       -3.29524
N         -2.58354       -1.60306       -1.58283
C         -1.72366       -2.30629       -0.80576
O         -1.53070       -3.50885       -0.86169
H          0.88939        0.45634        1.18367
H          0.89592        0.73252       -0.56981
H          2.26249       -0.06698        0.19232
H          0.75789       -1.65334       -1.02580
H          1.03675       -2.05531        1.99362
H          0.70261       -3.35325        0.82706
H          2.21760       -2.44806        0.74465
H         -1.40481       -2.44087        1.93214
H         -1.19370       -0.69665        2.21128
H         -2.70025       -1.32327        1.53521
H         -6.92406        1.19992       -1.94960
H         -8.17984        2.98018       -3.11910
H         -6.99473        4.55095       -4.63397
H         -4.55658        4.34984       -4.95039
H         -2.41248        3.20839       -4.40702
H          0.55633        0.20116       -3.42439
H         -3.14316       -2.01419       -2.31232
