41

C          0.71434       -1.21858       -1.07878
C          0.47367       -2.38676       -0.13622
C          1.07952       -2.21260        1.25825
S          0.07412       -1.25904        2.41911
O         -1.06991       -0.69785        1.73144
O         -0.10784       -2.07596        3.59917
N          1.07240       -0.00037        2.92082
C          1.67892        0.91238        2.00336
C          1.02296        1.37506        0.87215
C          1.74710        2.03613       -0.11237
C          3.08659        2.34298        0.10125
F          3.77776        2.78462       -0.95508
C          3.68119        2.16026        1.34687
C          5.03144        2.68186        1.68949
O          5.59871        2.21999        2.67693
C          5.71740        3.68207        0.86235
C          7.10080        3.67371        0.72096
N          7.46098        4.63105       -0.18446
C          6.35030        5.29606       -0.61348
N          6.37359        6.26301       -1.54915
C          5.14835        6.77424       -1.81114
C          3.97509        6.41264       -1.16564
Br         2.33070        7.20199       -1.65145
C          4.01304        5.43164       -0.17415
C          5.24812        4.79738        0.08032
C          2.97087        1.39020        2.27870
F          3.51789        1.03680        3.45375
H          0.02420       -0.39944       -0.87169
H          0.53526       -1.51782       -2.11644
H          1.74495       -0.85612       -1.01270
H         -0.60074       -2.59372       -0.07951
H          0.93800       -3.26699       -0.59679
H          1.16573       -3.20725        1.71358
H          2.08963       -1.79725        1.22140
H          1.61803       -0.23606        3.75573
H         -0.02823        1.16579        0.69806
H          1.28527        2.27792       -1.06635
H          7.84663        3.02922        1.17011
H          8.39451        4.82599       -0.51643
H          5.14036        7.52365       -2.59931
H          3.10695        5.13446        0.34075
