45

C          0.79149        0.07955       -0.01748
C          1.21922       -1.14883        0.82912
C          2.74589       -1.29983        0.63842
C          0.87980       -0.80841        2.30705
C          0.89684       -1.99467        3.27140
C          0.10760       -3.20302        2.75835
C          0.53137       -3.67198        1.33438
C          1.98184       -4.19988        1.42785
C          0.38007       -2.41256        0.40629
C          0.45408       -2.75005       -1.09077
C         -0.33214       -3.98982       -1.50726
C         -1.21941       -4.61427       -0.42399
C         -2.54066       -3.86841       -0.21009
O         -1.59372       -5.92683       -0.91518
C         -0.88370       -6.92540       -0.17884
C          0.19454       -6.20515        0.59552
C         -0.43980       -4.84237        0.88438
H         -0.29189        0.23666        0.02220
H          1.08060       -0.02998       -1.06808
H          1.26953        0.99482        0.35253
H          3.19425       -0.39670        0.20756
H          3.26671       -1.46696        1.58631
H          3.00645       -2.11723       -0.03867
H          1.56117       -0.03310        2.68149
H         -0.12588       -0.36807        2.34930
H          0.46438       -1.67404        4.22774
H          1.92903       -2.27922        3.49712
H         -0.95828       -2.93554        2.75074
H          0.21003       -4.02755        3.47511
H          2.67136       -3.50379        1.90273
H          2.03393       -5.10018        2.05107
H          2.39147       -4.43570        0.44132
H         -0.65227       -2.06952        0.55133
H          0.05588       -1.90814       -1.66974
H          1.49203       -2.87031       -1.41648
H         -0.93438       -3.76443       -2.39779
H          0.38544       -4.74017       -1.86767
H         -3.27526       -4.52329        0.27468
H         -2.44744       -2.97555        0.40879
H         -2.98286       -3.57310       -1.16813
H         -1.59025       -7.42718        0.48732
H         -0.47164       -7.66516       -0.87339
H          0.48540       -6.75375        1.49745
H          1.07405       -6.11658       -0.04877
H         -1.17160       -5.02038        1.68513
