28

C          0.99403        0.16223        0.03028
N          0.49765       -0.77971        0.99726
C         -0.30410       -0.52731        2.07739
O         -0.64457       -1.45563        2.80563
O         -0.63398        0.80099        2.24271
N         -1.47021        0.93798        3.36775
C         -1.73820        2.17145        3.64117
C         -2.57643        2.56831        4.83611
Cl        -4.19488        1.88598        4.76841
C         -2.52163        4.10384        4.65354
C         -3.29076        4.58335        3.39812
C         -2.39791        4.11340        2.22657
C         -3.09629        3.26282        1.25828
N         -3.64078        2.61432        0.46595
C         -1.22641        3.41890        2.94108
C         -1.06938        4.30272        4.18898
H          0.69694        1.18628        0.26168
H          0.60850       -0.12404       -0.95155
H          2.08469        0.08726        0.01750
H          0.70855       -1.76288        0.88506
H         -2.07464        2.24778        5.75487
H         -2.79191        4.65226        5.55915
H         -4.32205        4.22298        3.34806
H         -3.33606        5.68024        3.40160
H         -2.02369        5.00286        1.70231
H         -0.32200        3.28161        2.34896
H         -0.83359        5.34581        3.95117
H         -0.33631        3.91771        4.90690
