52

C          1.18276       -0.33561        0.29032
C          0.79083        0.91009        1.06935
C          1.16961        2.21534        0.36086
C          0.57500        2.40010       -1.04092
C         -0.92505        2.47623       -1.02061
C         -1.60959        3.53405       -1.47683
C         -3.10005        3.69672       -1.35317
C         -3.47829        4.76132       -0.30946
C         -2.94435        6.12211       -0.66721
C         -3.71289        7.18147       -0.95149
C         -3.16311        8.49000       -1.44346
C         -3.62999        8.80965       -2.87098
C         -5.15159        8.89838       -3.05326
C         -5.80662       10.05134       -2.28370
C         -5.72128       11.39320       -3.01296
C         -6.61989       11.48526       -4.24571
O         -8.00653       11.54837       -3.85514
C         -8.94395       10.61613       -4.13911
C         -8.49373        9.21725       -4.44015
O        -10.13736       10.89177       -4.06552
H          0.61576       -0.42138       -0.64146
H          0.97606       -1.23151        0.88376
H          2.24980       -0.32585        0.04726
H         -0.28431        0.88562        1.27903
H          1.29326        0.88770        2.04378
H          0.86453        3.05629        0.99781
H          2.26259        2.26977        0.28351
H          0.99384        3.32182       -1.46550
H          0.88815        1.58921       -1.70604
H         -1.46369        1.64117       -0.57968
H         -1.07006        4.36012       -1.93605
H         -3.50845        3.96670       -2.33502
H         -3.56726        2.74511       -1.07144
H         -4.57147        4.78941       -0.22074
H         -3.08943        4.47713        0.67583
H         -1.86255        6.22076       -0.72731
H         -4.79273        7.09384       -0.86061
H         -3.44886        9.28539       -0.74867
H         -2.06577        8.46706       -1.44203
H         -3.16444        9.74756       -3.19527
H         -3.25115        8.03121       -3.54709
H         -5.36313        8.98040       -4.12436
H         -5.61676        7.95657       -2.74241
H         -6.85628        9.81065       -2.08966
H         -5.35126       10.15805       -1.29440
H         -6.01853       12.17733       -2.30580
H         -4.68366       11.59431       -3.30140
H         -6.41064       12.43472       -4.75136
H         -6.41893       10.70314       -4.97827
H         -8.15199        8.72870       -3.52641
H         -9.35290        8.65001       -4.81441
H         -7.73631        9.17653       -5.22115
