31

C          0.12324       -0.67232       -0.14061
C         -0.51642       -0.51804        1.20697
O         -1.63930       -0.06043        1.37787
O          0.33704       -0.89823        2.18989
C         -0.05568       -0.65211        3.54815
C          0.92812        0.29961        4.24125
O          0.83861        1.66987        3.83707
C          1.43685        1.98863        2.58231
N          2.86070        1.83848        2.57271
C          3.77513        2.78564        2.95544
N          5.03838        2.47680        2.76263
C          4.97125        1.21177        2.20564
C          5.87484        0.33622        1.77183
N          5.46230       -0.87051        1.25254
C          4.13482       -1.20757        1.15350
N          3.72200       -2.32654        0.67065
N          3.14212       -0.35385        1.56771
C          3.54332        0.76476        2.06070
H         -0.39520       -0.02524       -0.85473
H          0.06698       -1.70981       -0.47184
H          1.16207       -0.33695       -0.11163
H         -1.07752       -0.26902        3.62502
H         -0.01951       -1.62145        4.05812
H          0.68213        0.29947        5.30939
H          1.95858       -0.05615        4.15856
H          0.96535        1.44243        1.76715
H          1.18976        3.03930        2.38852
H          3.39567        3.72952        3.37691
H          6.94109        0.51904        1.80054
H          6.16840       -1.51568        0.93114
H          4.51693       -2.89793        0.39266
