26

C          0.91604       -0.47594       -0.26796
C          0.23064        0.12403       -1.25503
C         -1.22932        0.43261       -1.18584
C          0.98847        0.50684       -2.47716
O          1.93362       -0.12640       -2.92053
O          0.49534        1.67950       -2.94772
C          1.28896        2.33498       -3.94717
C          1.94095        3.61394       -3.38436
N          2.98461        3.33688       -2.37744
C          4.06839        4.31780       -2.45668
C          2.44519        3.33043       -1.01516
H          0.43663       -0.77270        0.65836
H          1.98203       -0.67283       -0.35945
H         -1.40169        1.51367       -1.17659
H         -1.75146        0.00200       -2.04639
H         -1.68688        0.01856       -0.28090
H          2.04606        1.67881       -4.39241
H          0.60372        2.61615       -4.75496
H          2.38331        4.13150       -4.24564
H          1.17435        4.28343       -2.97408
H          3.71385        5.33865       -2.27311
H          4.85073        4.08646       -1.72480
H          4.54562        4.28816       -3.44225
H          2.16401        4.33444       -0.67735
H          1.56198        2.69720       -0.91927
H          3.19055        2.92763       -0.32019
