23

C          0.96922        0.09505       -0.20023
C          0.49287       -1.32993       -0.43437
C          0.90583       -2.30569        0.67365
C          0.34267       -1.99496        2.06363
C         -1.14589       -2.06777        2.09940
N         -1.88118       -3.16277        2.10127
C         -3.20324       -2.74633        2.08762
C         -4.34412       -3.64209        2.06492
O         -4.27541       -4.86856        2.06425
C         -3.23292       -1.37542        2.08876
Cl        -4.46640       -0.21699        2.06088
N         -1.94243       -0.94852        2.11054
H          0.51327        0.53301        0.69208
H          0.69732        0.72563       -1.05285
H          2.05714        0.13043       -0.08634
H         -0.59530       -1.33479       -0.56257
H          0.91557       -1.68589       -1.38169
H          0.59411       -3.31504        0.37511
H          2.00090       -2.32631        0.73780
H          0.73906       -2.73110        2.77406
H          0.69096       -1.01665        2.41285
H         -5.32864       -3.14623        2.04558
H         -1.62901        0.01169        2.10574
