33

C          1.34934       -0.33440        0.39091
C          0.79015        1.06232        0.68297
C          1.38068        2.07142       -0.30790
C         -0.72816        1.16006        0.69252
C         -1.33142        2.25415        1.33391
C         -2.72125        2.41288        1.34418
C         -3.54168        1.48203        0.70915
N         -4.94749        1.56958        0.68517
C         -5.77258        2.58345        1.07430
O         -6.86128        2.29336        1.57322
N         -5.39075        3.89037        0.84210
C         -4.70068        4.28160       -0.38091
C         -6.17999        4.93428        1.46918
C         -2.95467        0.36949        0.10221
C         -1.56293        0.21772        0.07931
H          1.13715       -0.65169       -0.63614
H          0.92905       -1.08049        1.07392
H          2.43776       -0.34472        0.51674
H          1.13784        1.32862        1.69070
H          1.04092        1.87159       -1.33047
H          1.08844        3.09700       -0.05641
H          2.47523        2.03049       -0.29957
H         -0.71753        2.99827        1.83823
H         -3.13940        3.25959        1.87998
H         -5.44052        0.68866        0.61343
H         -5.41985        4.77327       -1.04454
H         -3.90499        4.98737       -0.12669
H         -4.28516        3.43375       -0.92764
H         -7.05178        5.14939        0.84363
H         -6.52134        4.61673        2.45915
H         -5.56780        5.83424        1.57757
H         -3.56968       -0.38172       -0.38710
H         -1.15294       -0.64948       -0.43122
