14

O          1.04906       -0.03204       -0.05219
C          2.27291       -0.02780       -0.05628
N          3.04353        1.12410       -0.05994
C          4.33628        1.01212       -0.06443
N          5.10324       -0.12470       -0.06617
C          4.40740       -1.25912       -0.06263
N          4.90240       -2.51821       -0.06336
C          3.82425       -3.28069       -0.05888
N          2.66782       -2.53823       -0.05522
C          3.04657       -1.22798       -0.05781
H          4.95087        1.92831       -0.06740
H          6.11369       -0.10284       -0.06986
H          3.81328       -4.36316       -0.05807
H          1.71769       -2.88715       -0.05147
