18

C          0.98459        0.14391       -0.01988
C          0.51367       -0.01264        1.39395
C          0.44881       -1.26345        1.97228
C          0.01284       -1.31689        3.27679
N         -0.06647       -2.53776        3.94644
N         -0.31915       -0.22861        3.97789
C         -0.22179        0.95186        3.33967
C         -0.59360        2.18045        4.10864
N          0.17633        1.10648        2.06372
H          0.92693        1.19035       -0.33649
H          0.36117       -0.44983       -0.69572
H          2.02510       -0.18330       -0.10947
H          0.73681       -2.15681        1.43529
H         -0.63816       -3.20483        3.44157
H         -0.44363       -2.34482        4.87147
H         -1.65010        2.13782        4.38940
H          0.01250        2.25038        5.01681
H         -0.42869        3.08317        3.51249
