15

O          1.04707       -0.25686        0.01450
C          2.25635       -0.11371        0.01936
O          3.05068       -0.40521       -1.03178
C          3.01094        0.34454        1.20711
C          2.61695       -0.12256        2.46590
C          3.30270        0.29271        3.60753
C          4.37308        1.18177        3.49356
C          4.74848        1.66140        2.23711
I          6.32690        3.00526        2.07702
C          4.07025        1.25230        1.08838
H          4.00601       -0.41516       -0.83502
H          1.77501       -0.80713        2.55715
H          2.99867       -0.07116        4.58655
H          4.89547        1.49994        4.39313
H          4.34063        1.65753        0.11667
