29

C          0.65136        0.30885       -0.55769
C          0.04309        1.31921        0.08595
C         -1.37832        1.26702        0.54577
C          0.86206        2.52718        0.38334
O          1.82222        2.88667       -0.28017
O          0.44617        3.06298        1.55586
C          1.35656        3.97030        2.20306
C          1.69358        3.44698        3.60502
O          2.67837        2.40454        3.61816
C          2.19979        1.09879        3.28931
C          1.69240        0.29569        4.48987
O          0.54493        0.90866        5.08108
C          0.84243        1.48590        6.34688
H          0.13104       -0.61542       -0.78461
H          1.69488        0.37432       -0.85760
H         -1.43345        1.21651        1.63827
H         -1.92520        2.15255        0.20700
H         -1.89789        0.38790        0.14874
H          2.27378        4.13279        1.62857
H          0.82843        4.92528        2.29433
H          2.13428        4.27149        4.17600
H          0.78607        3.13413        4.12501
H          1.42048        1.14201        2.53429
H          3.04593        0.55916        2.84996
H          1.37219       -0.68923        4.13180
H          2.48902        0.13997        5.22563
H          1.78044        2.04991        6.32108
H          0.89915        0.69769        7.10230
H          0.03309        2.17143        6.61126
