13

O          1.13466        0.34702        0.04699
C          0.32256        0.33290       -1.06105
C          0.65938       -0.45260       -2.16965
Cl         2.09416       -1.41048       -2.15959
C         -0.16019       -0.47116       -3.29639
C         -1.32401        0.29917       -3.31651
C         -1.66819        1.08766       -2.21142
Cl        -3.12696        2.00981       -2.32144
C         -0.84516        1.10911       -1.07581
Cl        -1.24589        2.07647        0.30578
H          1.89031       -0.24603       -0.12269
H          0.09853       -1.08005       -4.15958
H         -1.96173        0.28190       -4.19817
