42

C          1.43917        0.17953       -0.01151
N          1.12482       -1.14702        0.48836
C         -0.28015       -1.32663        0.84235
C         -1.31870       -1.20300       -0.28092
C         -1.12489       -2.13381       -1.48956
N         -2.24662       -3.09655       -1.68203
C         -3.33436       -2.68982       -2.50292
C         -3.81534       -1.36185       -2.40807
C         -4.97899       -0.92215       -3.04807
C         -5.71599       -1.80512       -3.81418
C         -5.25622       -3.10582       -3.96984
C         -4.05998       -3.55435       -3.35562
C         -3.65874       -4.96905       -3.71383
C         -2.16650       -5.26196       -3.64681
C         -1.77865       -5.47019       -2.21330
C         -1.36200       -6.74471       -1.78617
C         -1.05923       -6.98267       -0.44887
C         -1.18338       -5.95325        0.47426
C         -1.59498       -4.68789        0.05077
C         -1.88108       -4.41335       -1.29748
H          1.11050        0.95844        0.68401
H          0.99259        0.35995       -0.99347
H          2.52450        0.27480       -0.11740
H          1.43398       -1.86002       -0.16947
H         -0.37191       -2.30741        1.31628
H         -0.53981       -0.60606        1.62906
H         -2.30708       -1.35877        0.16905
H         -1.31096       -0.16557       -0.63967
H         -1.01706       -1.52218       -2.39678
H         -0.16883       -2.66871       -1.41937
H         -3.31686       -0.63181       -1.78132
H         -5.31653        0.10194       -2.91699
H         -6.63750       -1.48668       -4.29190
H         -5.83604       -3.78876       -4.58941
H         -4.23165       -5.66685       -3.08902
H         -3.96190       -5.15309       -4.75392
H         -1.56299       -4.46506       -4.09836
H         -1.95720       -6.17140       -4.22408
H         -1.28854       -7.56507       -2.49688
H         -0.74818       -7.97232       -0.12657
H         -0.97379       -6.13211        1.52496
H         -1.73188       -3.91364        0.79774
