39

O          0.95209        0.77967       -0.48359
C          2.16752        0.78574       -0.35156
O          2.77482        1.47026        0.64954
C          3.14145        0.00820       -1.23675
N          3.32644       -1.36563       -0.79033
C          3.43355       -2.40943       -1.78870
C          4.76326       -3.15674       -1.98644
C          5.36187       -4.04035       -0.87503
N          4.51098       -4.90609       -0.07032
C          5.24051       -5.71305        0.92720
C          5.08866       -5.14605        2.33193
O          4.82361       -5.78508        3.33616
O          5.36212       -3.82653        2.41830
C          3.36258       -5.58566       -0.67005
C          2.06955       -5.16806        0.03315
O          0.99277       -4.98210       -0.51314
O          2.17458       -5.04384        1.37347
C          3.53953       -1.66464        0.61840
C          4.82213       -1.07789        1.18784
O          5.01935       -0.82072        2.36692
O          5.79537       -0.82662        0.28784
H          3.74557        1.37492        0.66438
H          2.71512        0.05439       -2.24680
H          4.09604        0.54084       -1.29559
H          2.62446       -3.12464       -1.62975
H          3.19736       -1.98171       -2.77342
H          4.63930       -3.79372       -2.87333
H          5.52837       -2.42074       -2.26996
H          6.13591       -4.65497       -1.35533
H          5.90729       -3.37960       -0.19304
H          4.87621       -6.74701        0.95805
H          6.31279       -5.77579        0.70474
H          5.18183       -3.60058        3.35494
H          3.25431       -5.33911       -1.73050
H          3.43457       -6.67763       -0.61890
H          1.28913       -4.73980        1.66135
H          2.70306       -1.27480        1.20866
H          3.54667       -2.73586        0.80412
H          6.56724       -0.58002        0.83833
