8

Br         1.06812        0.29392        0.21703
C          2.99677        0.03294        0.03317
C          3.48353       -1.08218        0.93509
Br         2.99554       -2.83106        0.21458
Br         5.42516       -0.93952        1.13024
H          3.18892       -0.15136       -1.02838
H          3.42905        1.00140        0.30429
H          3.07145       -1.02968        1.94672
