19

C          0.92279       -0.18044       -0.36165
C          0.42383        0.99508       -1.15410
O         -0.30509        0.82300       -2.13445
N          0.70859        2.27251       -0.76918
C          1.61578        2.80009        0.16483
C          2.75002        2.12714        0.62808
C          3.61217        2.73158        1.55162
C          3.34799        4.01692        2.01488
C          2.23618        4.69409        1.53416
F          1.97962        5.93371        1.97181
C          1.38093        4.10638        0.60656
H          0.22165       -1.01191       -0.48886
H          0.95435        0.04414        0.70716
H          1.90185       -0.49438       -0.72890
H          0.12878        2.94038       -1.26639
H          3.02721        1.14773        0.25582
H          4.49544        2.19985        1.89778
H          4.00357        4.49680        2.73435
H          0.52162        4.67505        0.26473
