57

C          0.39083        0.37553        0.26579
C          0.76827        0.85853        1.66117
C          1.15555        2.33146        1.70833
C          0.28485        3.37206        1.83186
C          0.76021        4.78462        1.81828
C          0.62688        5.57943        2.96432
C          1.03877        6.91364        2.95172
C          1.58187        7.46621        1.79270
C          1.70861        6.68774        0.64355
C          1.29343        5.35499        0.65384
C         -1.16980        3.09621        1.96143
C         -2.02849        3.36165        0.88780
C         -3.39460        3.10252        1.00112
C         -3.90496        2.55998        2.17922
O         -5.25044        2.32179        2.22717
C         -5.57420        0.93925        2.45399
C         -5.38021        0.07501        1.18880
N         -4.01522       -0.47391        1.04795
C         -3.80785       -1.64088        1.90541
C         -3.73485       -0.81660       -0.34566
C         -3.07068        2.34285        3.27355
C         -1.70483        2.61089        3.16409
C          2.62482        2.53998        1.67599
C          3.31241        2.84952        2.85748
C          4.69513        3.03952        2.84238
C          5.40231        2.91898        1.64736
C          4.72754        2.61047        0.46699
C          3.34409        2.42108        0.48057
H         -0.43361        0.95786       -0.15613
H          0.07285       -0.67151        0.30729
H          1.23804        0.43532       -0.42344
H         -0.06165        0.64941        2.34343
H          1.59250        0.23830        2.03789
H          0.19912        5.16316        3.87271
H          0.93206        7.52199        3.84571
H          1.90253        8.50428        1.78375
H          2.12854        7.11723       -0.26182
H          1.38839        4.76120       -0.25152
H         -1.63663        3.76470       -0.04240
H         -4.05749        3.30078        0.16448
H         -5.07045        0.53578        3.33910
H         -6.64370        0.93225        2.69664
H         -6.10801       -0.74652        1.19255
H         -5.61592        0.70613        0.32204
H         -4.47673       -2.46861        1.64288
H         -2.77473       -1.99705        1.82295
H         -3.96488       -1.39464        2.96001
H         -4.42807       -1.57113       -0.73358
H         -3.79964        0.07421       -0.98043
H         -2.71261       -1.19697       -0.45157
H         -3.47170        1.97253        4.21102
H         -1.05555        2.43217        4.01748
H          2.77048        2.94953        3.79474
H          5.21808        3.28514        3.76262
H          6.47830        3.06971        1.63551
H          5.27793        2.52140       -0.46576
H          2.83088        2.19368       -0.44953
