24

C          1.03098        0.12542        0.31040
O          0.71206        0.53031        1.64511
C          0.64930       -0.48837        2.53045
O          0.89402       -1.66874        2.34171
C          0.21215        0.04262        3.82632
C         -1.14607        0.32402        4.03521
Cl        -2.28152        0.11995        2.73137
C         -1.57864        0.76333        5.30058
Cl        -3.27455        1.03881        5.58025
C         -0.64380        0.93981        6.33982
C         -1.09705        1.49612        7.63306
O         -1.70762        2.54728        7.72509
O         -0.72885        0.67628        8.64381
C         -0.94529        1.18856        9.96552
C          0.72312        0.67762        6.11393
Cl         1.90699        0.99292        7.35286
C          1.14780        0.20593        4.85708
Cl         2.82652       -0.14281        4.56170
H          0.71074        0.91944       -0.37016
H          0.50488       -0.79298        0.02833
H          2.11228       -0.00637        0.21330
H         -1.11791        2.26953        9.99037
H         -1.79495        0.66670       10.41208
H         -0.05172        0.97989       10.56216
