31

O          1.15139       -0.48792       -0.20805
C          2.33166       -0.17786       -0.07285
C          3.26498       -0.93612        0.84747
N          3.93697       -2.00981        0.14562
C          5.05384       -1.80091       -0.63905
C          5.35704       -3.02341       -1.18646
N          4.49036       -3.97978       -0.73720
C          3.65435       -3.35012        0.07111
N          2.61841       -4.04530        0.79484
O          2.38764       -5.21687        0.46899
O          2.05556       -3.44069        1.71608
N          2.92366        0.87353       -0.73632
C          2.18240        1.78139       -1.58636
C          2.51020        3.22830       -1.29421
C          3.03287        3.64731       -0.05913
C          3.29567        4.99575        0.18735
C          3.01714        5.94877       -0.78780
C          2.47712        5.55409       -2.00973
C          2.22496        4.20345       -2.26198
H          4.03576       -0.25948        1.23645
H          2.71886       -1.29459        1.71809
H          5.51544       -0.82989       -0.75464
H          6.15741       -3.26389       -1.87558
H          3.92670        0.99640       -0.71201
H          2.47511        1.53978       -2.61489
H          1.10490        1.62056       -1.48135
H          3.23269        2.93134        0.73382
H          3.70569        5.30227        1.14628
H          3.20951        7.00007       -0.59061
H          2.24386        6.30055       -2.76482
H          1.79226        3.91840       -3.21911
