36

C          1.12684        0.31071        0.24082
C          0.61370       -0.85949       -0.58616
C          1.29917       -2.17606       -0.21555
O         -0.83236       -0.90613       -0.55567
C         -1.45670       -1.47526        0.49689
O         -0.94988       -1.85836        1.53945
C         -2.91943       -1.43961        0.31191
C         -3.61234       -0.74705        1.32757
C         -5.00471       -0.68070        1.33223
C         -5.72358       -1.31253        0.32717
C         -5.04709       -2.00621       -0.67910
C         -3.63648       -2.08753       -0.70764
C         -3.08285       -2.89953       -1.83268
O         -3.80890       -3.48165       -2.62591
O         -1.73924       -2.87647       -1.88865
C         -1.04839       -3.44787       -3.02315
C         -1.16328       -4.96544       -3.05431
C         -1.43602       -2.77914       -4.33881
H          0.87742        0.19220        1.29983
H          0.66315        1.24475       -0.09321
H          2.21327        0.40882        0.14898
H          0.85817       -0.66130       -1.63668
H          1.32588       -2.33238        0.86752
H          0.78295       -3.03466       -0.65294
H          2.33760       -2.17879       -0.56230
H         -3.05797       -0.26471        2.13245
H         -5.52461       -0.14822        2.12523
H         -6.81087       -1.27861        0.32640
H         -5.64040       -2.50281       -1.44779
H          0.00757       -3.20816       -2.85420
H         -2.18350       -5.29498       -3.26999
H         -0.50299       -5.38911       -3.81760
H         -0.88880       -5.38699       -2.08156
H         -1.39808       -1.68894       -4.24004
H         -0.75619       -3.08094       -5.14199
H         -2.45196       -3.03869       -4.65004
