54

C          0.87410        0.14918        0.15666
O          0.48105        0.97121        1.26149
C          0.85116        0.46653        2.47404
O          1.35023       -0.64424        2.63175
C          0.61552        1.45052        3.61482
N          1.16217        2.81941        3.44123
C          0.17683        3.90573        3.20356
C          0.11085        4.96796        4.29705
O          0.10839        6.17409        4.07251
O          0.04883        4.41668        5.54393
C          0.15212        5.37355        6.60166
C          2.51711        3.08512        3.27348
C          3.12370        4.22729        3.81405
C          4.47521        4.54409        3.58818
C          5.28829        3.73904        2.78745
N          6.64540        4.11478        2.63115
N          7.40200        3.21626        3.05909
C          8.75875        3.55281        2.88323
C          9.37959        3.41128        1.62919
C         10.76046        3.56599        1.47661
C         11.53842        3.87899        2.59353
N         12.99705        3.98310        2.45761
O         13.49248        3.72637        1.35185
O         13.64329        4.30673        3.46309
C         10.93822        4.07073        3.84580
C          9.55018        3.90640        3.98618
C          8.94522        4.09452        5.27103
N          8.47630        4.26003        6.32144
C          4.70430        2.58381        2.23600
N          5.39451        1.65794        1.42029
C          6.31610        2.00554        0.45668
C          7.18961        0.84530        0.06412
O          6.45713        3.11636       -0.04249
C          3.36526        2.25661        2.52866
H          0.49755        0.60237       -0.76408
H          0.45633       -0.85902        0.24480
H          1.96729        0.10317        0.09221
H         -0.46859        1.47952        3.78125
H          1.04960        1.01873        4.52396
H          0.40677        4.40227        2.25319
H         -0.83857        3.50294        3.10346
H          1.15138        5.82192        6.60282
H         -0.61606        6.14854        6.51318
H          0.00846        4.85175        7.55164
H          2.57887        4.89644        4.47133
H          4.89635        5.42676        4.06488
H          8.78686        3.16541        0.75327
H         11.20392        3.42434        0.49184
H         11.53855        4.32813        4.71760
H          5.01354        0.72240        1.35927
H          7.82215        1.13411       -0.77970
H          7.83355        0.58453        0.91025
H          6.58373       -0.01701       -0.22071
H          2.98459        1.36270        2.05899
