27

O          1.20777        0.13515       -1.62278
C          2.26837        0.06575       -1.03144
O          2.82786       -1.08508       -0.60242
C          3.08567        1.24217       -0.68725
C          4.39722        1.28542       -1.19266
C          5.19304        2.41150       -0.98400
C          4.68234        3.50082       -0.28257
C          3.37631        3.46492        0.21297
C          2.56562        2.33290        0.02310
C          1.18165        2.40789        0.56076
O          0.58660        3.48232        0.51990
C          0.51238        1.25141        1.19830
C         -0.83949        1.02765        0.91061
C         -1.50256       -0.06409        1.47319
C         -0.81584       -0.91649        2.33605
Br        -1.70902       -2.40205        3.09112
C          0.52378       -0.68093        2.65198
C          1.19148        0.40996        2.08730
H          3.65003       -0.98641       -0.08575
H          4.78732        0.46421       -1.79200
H          6.19975        2.45420       -1.39518
H          5.29132        4.39152       -0.13992
H          2.98296        4.33565        0.73753
H         -1.36907        1.69022        0.22852
H         -2.54572       -0.24184        1.22518
H          1.05046       -1.34104        3.33636
H          2.22637        0.59596        2.35780
