38

O          3.01732        1.06522       -0.18431
C          1.92125        0.54291       -0.02528
O          0.79811        1.34779        0.09360
C         -0.49196        0.80818        0.10543
C         -1.55655        1.70912        0.07306
C         -2.85942        1.22124        0.03239
C         -3.08162       -0.15518        0.02863
C         -2.00022       -1.04242        0.07517
C         -0.68354       -0.56490        0.11664
C          0.49167       -1.43951        0.14725
O          0.17646       -2.78286        0.20191
C          1.74437       -0.93560        0.07578
C          3.01864       -1.78792        0.04071
C          4.05917       -1.46464        1.14276
C          5.30265       -0.72091        0.66798
C          5.93909       -1.38493       -0.54368
C          4.95680       -1.73008       -1.63175
C          5.44409       -1.92279       -2.93627
C          4.59586       -2.31966       -3.96840
C          3.25067       -2.54283       -3.70796
C          2.75531       -2.36051       -2.41765
C          3.59373       -1.94245       -1.36318
H         -1.36906        2.77901        0.06601
H         -3.69917        1.91028       -0.00413
H         -4.09686       -0.54211       -0.01379
H         -2.19817       -2.11208        0.06788
H          0.95949       -3.33835        0.07638
H          2.72923       -2.81270        0.30643
H          4.40486       -2.41927        1.56667
H          3.59509       -0.92895        1.97979
H          5.07353        0.32073        0.43517
H          6.03601       -0.68371        1.48305
H          6.71085       -0.71277       -0.93922
H          6.44026       -2.30988       -0.23285
H          6.49899       -1.76702       -3.15284
H          4.98752       -2.46129       -4.97184
H          2.58508       -2.86069       -4.50608
H          1.69823       -2.55262       -2.24954
