30

C          0.98319       -0.12765        0.35966
C          0.60703        1.34226        0.47035
C          1.06090        2.17647       -0.73007
C          0.48171        1.74680       -2.08243
C         -1.04804        1.81753       -2.19086
C         -1.62986        3.23640       -2.11427
C         -1.27457        4.13836       -3.24670
C         -0.81423        3.89733       -4.48036
C         -0.52570        5.11415       -5.29623
C         -1.00177        6.27815       -4.43948
C         -1.35805        5.61023       -3.14323
O         -1.69794        6.19757       -2.12758
H          0.46591       -0.61430       -0.47237
H          0.70516       -0.65786        1.27587
H          2.06163       -0.24577        0.21342
H         -0.47459        1.43479        0.61493
H          1.07474        1.75346        1.37305
H          0.81784        3.22843       -0.54114
H          2.15533        2.12903       -0.79608
H          0.94002        2.36703       -2.86079
H          0.79871        0.72148       -2.30485
H         -1.35420        1.34978       -3.13512
H         -1.50230        1.20742       -1.40186
H         -2.72396        3.15810       -2.07809
H         -1.32883        3.69662       -1.16639
H         -0.63250        2.90417       -4.87188
H         -1.05151        5.08500       -6.25536
H          0.54863        5.18655       -5.49736
H         -0.21262        7.01950       -4.29081
H         -1.89300        6.74862       -4.86517
