20

O          1.00671       -0.17718        0.01214
C          2.22072       -0.08975        0.01584
O          2.94028        0.43152       -0.99747
C          3.05607       -0.60275        1.12580
C          4.17076        0.11211        1.58753
C          4.92661       -0.39286        2.64782
C          4.55429       -1.61037        3.23972
N          5.31657       -2.05841        4.38881
O          6.52998       -2.23251        4.21791
O          4.71153       -2.13483        5.46543
C          3.44077       -2.32794        2.79543
C          3.10329       -3.64593        3.36333
O          3.90310       -4.46807        3.76070
O          1.77855       -3.85354        3.38657
C          2.68297       -1.81052        1.73399
H          3.90299        0.28318       -0.95400
H          4.43496        1.07629        1.15637
H          5.78213        0.16864        3.02139
H          1.66750       -4.73432        3.80560
H          1.80772       -2.34818        1.36788
