22

C          1.11597        0.15432        0.05257
C          0.63528       -0.72990       -1.09499
C          1.01472       -2.21728       -0.92530
N          0.27634       -2.74583        0.28737
O          1.04626       -3.03681        1.20994
C          0.62571       -3.07527       -2.16063
C          1.11234       -2.55589       -3.52960
C          2.61614       -2.32943       -3.64140
N          1.02431       -4.53118       -2.02796
O          2.13707       -4.68760       -1.51387
H          0.63499       -0.11003        0.99894
H          0.87734        1.20199       -0.15788
H          2.20024        0.07396        0.17965
H         -0.45213       -0.62233       -1.19737
H          1.08132       -0.32881       -2.01062
H          2.09104       -2.29308       -0.72419
H         -0.47148       -3.12570       -2.21070
H          0.81207       -3.25998       -4.31720
H          0.59913       -1.61612       -3.76499
H          3.17337       -3.26271       -3.51933
H          2.85812       -1.92997       -4.63187
H          2.97629       -1.61228       -2.89874
