13

O          2.60137       -1.40000       -0.00306
C          1.62685       -0.44594       -0.00326
C          1.94276        0.91073        0.00085
C          0.91471        1.85522        0.00119
C         -0.41770        1.43717       -0.00253
C         -0.71687        0.07425       -0.00691
Cl        -2.36023       -0.43711       -0.01139
C          0.30363       -0.87330       -0.00746
H          3.46892       -0.96299        0.00395
H          2.97460        1.24858        0.00373
H          1.14984        2.91671        0.00444
H         -1.21555        2.17513       -0.00200
H          0.07720       -1.93509       -0.01085
