126

C          0.95638        0.26569        0.29828
C          0.51472        1.64925       -0.15659
C          0.97857        2.00863       -1.57133
C          0.53069        1.04227       -2.67496
C         -0.99680        0.86787       -2.83475
C         -1.73781        2.18821       -3.13634
C         -1.31076        2.89707       -4.41612
C         -1.33735       -0.20390       -3.89147
O         -0.80214       -1.48359       -3.50836
C          0.29405       -1.88407       -4.19259
O          0.86960       -1.30462       -5.09673
C          0.77436       -3.14509       -3.61718
C          1.84091       -3.11357       -2.71914
C          2.38899       -4.31286       -2.25838
C          1.90352       -5.54678       -2.71472
N          2.48303       -6.78497       -2.35740
C          3.56088       -6.98580       -1.48427
N          3.51810       -6.46957       -0.25729
C          4.59044       -6.67343        0.48635
N          4.61240       -6.12747        1.77777
C          5.66900       -6.28894        2.69104
C          5.47669       -6.98509        3.88927
C          6.56957       -7.31465        4.69998
C          7.86209       -6.92663        4.32811
C          9.00964       -7.37896        5.13981
O          9.07553       -8.49005        5.63704
O          9.90545       -6.37080        5.25472
C         11.11600       -6.65806        5.97774
C         11.09434       -5.99729        7.36988
C          9.94646       -6.51996        8.26660
C         10.09443       -7.95911        8.74410
C         12.45372       -6.13386        8.08895
C         13.63262       -5.39644        7.44114
C         13.45885       -3.88604        7.26755
C         13.18958       -3.15041        8.57129
C          8.06549       -6.20292        3.15331
C          6.97360       -5.90098        2.33892
N          5.62702       -7.38257        0.07606
C          5.58602       -7.89226       -1.14229
N          6.69646       -8.61799       -1.60573
C          7.87613       -8.79495       -0.85646
C          9.06465       -8.15506       -1.22632
C         10.17405       -8.17199       -0.37136
C         10.10852       -8.84944        0.85208
C         11.25255       -8.76554        1.78427
O         11.91944       -7.75533        1.93064
O         11.43284       -9.96423        2.38678
C         12.46677      -10.04420        3.38530
C         13.69482      -10.80347        2.84614
C         14.37105      -10.08144        1.65609
C         15.08468       -8.78047        2.00204
C         14.72253      -11.09653        3.96080
C         14.26399      -12.06419        5.05953
C         13.83434      -13.45467        4.58635
C         14.91843      -14.20036        3.82338
C          8.93815       -9.51389        1.22081
C          7.82953       -9.47210        0.37399
N          4.56911       -7.70819       -1.96970
C          0.80062       -5.55293       -3.58625
C          0.23511       -4.35822       -4.04195
H          0.46189       -0.52295       -0.27688
H          0.69814        0.11576        1.35149
H          2.03907        0.14336        0.19390
H         -0.57524        1.72727       -0.08127
H          0.92597        2.39135        0.53840
H          0.64474        3.02527       -1.80744
H          2.07565        2.04525       -1.57833
H          0.96442        1.37549       -3.62562
H          0.99254        0.07162       -2.46976
H         -1.38132        0.48842       -1.87911
H         -2.81438        1.98499       -3.19724
H         -1.61333        2.88007       -2.29551
H         -1.48650        2.27697       -5.29966
H         -1.88981        3.81790       -4.54209
H         -0.25349        3.17546       -4.39194
H         -2.42459       -0.33002       -3.94858
H         -1.00282        0.09224       -4.89149
H          2.26381       -2.16585       -2.39598
H          3.23083       -4.25972       -1.57302
H          2.68028       -7.33957       -3.18469
H          3.67325       -6.09108        2.14634
H          4.48571       -7.32899        4.17359
H          6.41509       -7.89773        5.60530
H         11.31515       -7.73380        6.03744
H         11.92114       -6.22843        5.37330
H         10.87472       -4.93249        7.22031
H          9.87367       -5.87586        9.15255
H          8.98923       -6.41138        7.74473
H         10.92311       -8.05885        9.45157
H          9.18289       -8.27478        9.26202
H         10.26720       -8.65300        7.91857
H         12.35187       -5.78771        9.12498
H         12.72520       -7.19548        8.15128
H         14.52270       -5.57600        8.05813
H         13.85499       -5.84032        6.46415
H         14.37828       -3.48370        6.82504
H         12.65604       -3.67342        6.55351
H         13.96411       -3.36858        9.31336
H         13.18123       -2.06949        8.39826
H         12.21823       -3.42486        8.99334
H          9.06632       -5.91737        2.83837
H          7.14777       -5.38419        1.39716
H          6.80688       -8.45158       -2.59567
H          9.12157       -7.58948       -2.15261
H         11.07807       -7.63327       -0.64767
H         12.73379       -9.05816        3.78120
H         12.02006      -10.59917        4.21619
H         13.33454      -11.75452        2.43384
H         15.10663      -10.76126        1.20679
H         13.63145       -9.88743        0.87144
H         15.96532       -8.96423        2.62489
H         15.42947       -8.29036        1.08569
H         14.43395       -8.08030        2.53063
H         15.64247      -11.49037        3.51114
H         15.00491      -10.15515        4.44935
H         15.09002      -12.17949        5.77341
H         13.44155      -11.61585        5.62823
H         13.56011      -14.04717        5.46774
H         12.93190      -13.38661        3.96954
H         15.84187      -14.25883        4.40822
H         14.59025      -15.22189        3.60603
H         15.14287      -13.71531        2.86877
H          8.86070      -10.01834        2.18088
H          6.90277       -9.94371        0.69489
H          0.38573       -6.49765       -3.93126
H         -0.59567       -4.37896       -4.74183
