18

O          1.05874        0.08339        0.14810
C          2.27411        0.10650        0.02595
O          2.93786       -0.79288       -0.72068
C          3.09576        1.05244        0.82262
C          2.66805        1.25747        2.14693
C          3.32217        2.16771        2.97547
C          4.40877        2.88828        2.48683
C          4.84365        2.70138        1.17034
Cl         6.24363        3.58850        0.67424
C          4.18003        1.79377        0.32998
C          4.65541        1.57246       -1.03447
O          4.99618        0.47976       -1.45380
O          4.59679        2.67541       -1.78851
H          3.90154       -0.65170       -0.86843
H          1.81094        0.70539        2.53481
H          2.98308        2.31457        3.99898
H          4.91913        3.59283        3.14091
H          4.93750        2.42566       -2.67386
