34

C          0.77488        0.10973       -0.04611
N          0.60062       -1.27890       -0.50272
C         -0.19049       -2.17243        0.28375
C         -1.34889       -1.80285        1.02616
Br        -2.16239       -0.07282        1.03859
C         -2.08293       -2.74423        1.77444
C         -1.70652       -4.07659        1.79733
Br        -2.71221       -5.32786        2.79207
C         -0.59576       -4.49028        1.08594
C          0.15280       -3.55899        0.34772
Br         1.69859       -4.31749       -0.48566
C          0.93148       -1.46430       -1.87623
C         -0.04568       -1.79503       -2.84988
N         -1.45399       -1.78211       -2.51488
O         -2.01793       -2.87991       -2.42259
O         -1.99315       -0.67245       -2.42182
C          0.25315       -2.07611       -4.19136
C          1.58066       -2.01694       -4.59992
N          1.93164       -2.31859       -5.99453
O          1.02163       -2.69733       -6.74341
O          3.11359       -2.17364       -6.33182
C          2.58304       -1.67267       -3.68520
C          2.28037       -1.41005       -2.32301
C          3.46480       -1.10993       -1.42037
F          4.58736       -1.78766       -1.79671
F          3.80493        0.20922       -1.47176
F          3.29266       -1.40144       -0.10479
H          0.75896        0.18056        1.04711
H          0.02094        0.76960       -0.48701
H          1.74117        0.52524       -0.34352
H         -2.97005       -2.43460        2.32450
H         -0.30259       -5.53775        1.10830
H         -0.54472       -2.32617       -4.88962
H          3.62536       -1.62928       -4.01102
