48

C          0.74521        0.45458        1.24501
C          0.00431       -0.65441        1.26985
C         -1.48498       -0.76293        1.01855
C         -1.90094       -2.20016        0.59455
N         -2.61660       -2.22532       -0.70983
C         -3.89067       -1.47148       -0.52737
C         -3.65643       -0.06634        0.06212
C         -2.14732        0.23328        0.02422
C         -1.73005       -0.02256       -1.43750
C         -1.77604       -1.52880       -1.76597
C         -0.38390       -2.25426       -1.98688
O         -0.66087       -3.67457       -2.02578
C          0.41588       -1.88441       -3.23803
C          0.36713       -2.71793       -4.36403
C          1.06621       -2.36091       -5.50205
N          1.75746       -1.21150       -5.63124
C          1.82136       -0.39743       -4.56887
C          2.49022        0.81570       -4.70555
C          2.58841        1.73996       -3.65870
C          2.07246        1.41019       -2.41966
O          2.07253        2.20225       -1.30752
C          2.13928        3.60539       -1.53573
C          1.48059        0.15957       -2.25192
C          1.22948       -0.71643       -3.32671
H          0.33911        1.43153        1.00141
H          1.81253        0.40961        1.45908
H          0.51313       -1.57856        1.55429
H         -1.93921       -0.58819        2.00480
H         -1.05011       -2.88998        0.56675
H         -2.56183       -2.62215        1.36441
H         -4.41656       -1.39355       -1.48677
H         -4.56167       -2.03379        0.13366
H         -4.02519       -0.01151        1.09355
H         -4.21002        0.68310       -0.51611
H         -1.96072        1.27498        0.30592
H         -0.78107        0.44810       -1.63721
H         -2.43622        0.49827       -2.10133
H         -2.32406       -1.65182       -2.71189
H          0.26546       -2.12457       -1.11867
H         -1.50165       -3.77771       -1.53256
H         -0.18788       -3.65140       -4.35591
H          1.08107       -3.00913       -6.37372
H          2.93131        1.05943       -5.66953
H          3.08953        2.68493       -3.83627
H          3.17428        3.90820       -1.71588
H          1.48603        3.92543       -2.35545
H          1.79145        4.10743       -0.62671
H          1.15863       -0.10694       -1.25455
