50

O          0.76726        1.52883       -0.73136
C          1.88036        1.18270       -0.27355
O          1.90545       -0.34644        0.26658
C          3.02031       -1.77977        0.22417
C          4.28024       -1.90736       -1.09398
O          3.22441       -2.02874       -1.98641
C          2.79062       -0.64601       -1.72678
O          3.84502        0.17104       -0.45134
C          3.91244        0.25761        1.21395
C          5.07141       -0.38703        1.72481
C          5.22931       -0.59323        3.12483
C          4.35970       -0.05580        4.06916
C          3.25221        0.63587        3.64058
C          2.92010        0.76852        2.26235
C          1.47602        1.38819        2.28759
O          0.43574        0.44690        2.50857
C          2.85930       -0.15536       -3.14487
O          2.06586        0.99752       -3.40294
C          4.32788        0.02849       -3.37130
O          4.51084        1.43737       -3.59719
C          5.19236       -0.81539       -2.19232
O          6.22560       -0.05592       -1.58343
C          3.05899        2.47259       -0.15010
C          4.15516        2.62127       -1.01828
C          5.12634        3.64950       -1.01408
C          5.09489        4.60127       -0.02698
C          4.09850        4.48718        0.92717
C          3.08502        3.48632        0.83510
H          3.37715       -1.99420        1.23392
H          2.28010       -2.56580        0.01041
H          4.86426       -2.82886       -0.98476
H          1.71662       -0.73189       -1.52397
H          5.79152       -0.87443        1.07778
H          6.03166       -1.22175        3.50751
H          4.49708       -0.19636        5.14011
H          2.58034        1.03156        4.40925
H          1.41107        2.11408        3.11298
H          1.15025        2.03514        1.48573
H         -0.34388        0.81013        2.04466
H          2.48611       -0.95185       -3.81341
H          1.71263        0.90736       -4.30998
H          4.58178       -0.39646       -4.34735
H          3.60872        1.84831       -3.49506
H          5.72421       -1.52656       -2.83966
H          5.81993        0.46557       -0.86875
H          4.39790        1.83861       -1.68755
H          5.91606        3.65450       -1.76665
H          5.84300        5.38909        0.01240
H          4.10054        5.17959        1.76667
H          2.36685        3.54746        1.63669
