10

C          0.97933       -0.01127       -0.12312
C          0.47674        0.44740       -1.46388
O         -0.23181       -0.27391       -2.16454
N          0.82849        1.68941       -1.88467
O          1.62607        2.60086       -1.18251
H          0.61542       -1.02380        0.07533
H          0.60644        0.64983        0.66369
H          2.07239       -0.03036       -0.11852
H          0.48804        1.99764       -2.79075
H          1.87204        2.17075       -0.34751
