36

C          1.38793       -0.21330       -0.20771
C          0.90704       -0.63636        1.14729
C          1.01231       -1.89736        1.58194
C          0.52433       -2.35078        2.91402
C          1.69241       -2.70427        3.82557
O         -0.39893       -1.47570        3.54198
C         -0.37237       -0.05113        3.33730
C         -1.87657        0.41710        3.53647
C         -2.43623       -0.21184        4.83858
C         -2.20447        1.91881        3.43906
C         -2.65070        2.67025        4.54158
C         -3.05240        4.00666        4.40779
C         -2.98247        4.64225        3.17428
C         -2.54935        3.92819        2.06711
C         -2.20235        2.57868        2.19545
C          0.22003        0.39405        1.98219
H          0.79208        0.62213       -0.59167
H          1.30042       -1.02827       -0.93397
H          2.43262        0.10684       -0.15811
H          1.48070       -2.65021        0.95486
H         -0.04554       -3.27349        2.75159
H          1.33531       -3.06204        4.79639
H          2.30584       -3.49554        3.37597
H          2.33660       -1.83925        4.01300
H          0.23526        0.38448        4.14219
H         -2.45687       -0.06477        2.73462
H         -1.88422        0.14075        5.71769
H         -3.49680        0.02828        4.97335
H         -2.36947       -1.30450        4.82916
H         -2.74291        2.22667        5.52942
H         -3.43490        4.54523        5.27116
H         -3.28595        5.68007        3.07117
H         -2.50755        4.40639        1.09166
H         -1.97501        2.05432        1.27425
H         -0.57427        0.75745        1.33811
H          0.89703        1.24107        2.15454
