13

O          1.11478        0.04849        0.07137
S          2.54373       -0.10315       -0.05378
O          3.16156       -0.15789       -1.36228
O          3.21733        1.15392        0.70016
C          3.16992       -1.43103        0.89903
S          2.54372       -1.55114        2.52897
O          1.11477       -1.36525        2.59304
O          3.16155       -2.69602        3.16491
O          3.21732       -0.25212        3.20808
H          2.75065        1.97188        0.42102
H          2.89157       -2.35398        0.38159
H          4.26013       -1.36884        0.93390
H          2.75063       -0.06353        4.05152
