33

O          1.26308       -0.63563       -0.58132
N          2.32986       -0.23277       -0.09791
O          2.93819        0.78042       -0.46867
C          2.91176       -1.00884        1.00012
C          2.51197       -2.33361        1.19941
C          3.05524       -3.05695        2.26573
C          3.99061       -2.47838        3.14190
N          4.43080       -3.26999        4.22322
N          5.66681       -3.45270        4.17190
C          6.07287       -4.40399        5.13928
C          6.45070       -5.68478        4.69232
O          6.37799       -5.97428        3.35224
C          6.89465       -6.66155        5.57768
C          6.97708       -6.36672        6.93623
C          6.62395       -5.09983        7.42361
C          6.72529       -4.82372        8.79764
C          6.38665       -3.57071        9.30512
C          5.94432       -2.57595        8.44380
C          5.84032       -2.83538        7.07487
C          6.16988       -4.09670        6.52756
C          4.37062       -1.13876        2.92309
Cl         5.46613       -0.30823        3.97297
C          3.84454       -0.40736        1.85077
H          1.78477       -2.81132        0.54518
H          2.74579       -4.08875        2.42693
H          6.71941       -6.86992        3.20157
H          7.18064       -7.64999        5.23244
H          7.32768       -7.13888        7.61881
H          7.07374       -5.58798        9.48961
H          6.47074       -3.37308       10.37054
H          5.67907       -1.59560        8.83121
H          5.49138       -2.03409        6.42831
H          4.15182        0.62579        1.70034
