24

C          0.97520        0.05450       -0.11422
C          0.39267       -1.19594       -0.78049
C          0.96034       -2.44423       -0.10111
C         -1.11193       -1.15481       -0.76632
N         -1.86364       -0.07678       -0.76906
C         -3.19423       -0.49663       -0.78082
C         -4.29154        0.47255       -0.79560
O         -5.49273        0.24711       -0.84311
O         -3.88437        1.76673       -0.76358
C         -3.23336       -1.88597       -0.78529
C         -4.26435       -2.87607       -0.78176
O         -4.08851       -4.08497       -0.82574
O         -5.49753       -2.36587       -0.70607
N         -1.90696       -2.26729       -0.80266
H          0.66297        0.12985        0.93389
H          0.64601        0.96598       -0.62564
H          2.07005        0.03802       -0.14151
H          0.71343       -1.20144       -1.83004
H          0.61981       -2.52639        0.93724
H          0.65861       -3.35653       -0.62701
H          2.05566       -2.42117       -0.09780
H         -4.72495        2.26266       -0.78808
H         -6.09798       -3.13652       -0.71584
H         -1.59316       -3.22882       -0.82284
