18

N          0.77123       -0.06518       -0.11718
C          0.31937       -1.00136        0.73680
O         -0.88469       -1.23027        0.81651
N          1.21132       -1.78825        1.38520
C          2.61875       -1.75172        1.48332
C          3.24530       -3.00887        1.53172
C          4.63591       -3.12397        1.60406
C          5.42501       -1.98123        1.65833
C          4.81991       -0.72591        1.66630
C          3.42424       -0.60516        1.59421
Cl         2.79345        0.99027        1.82199
H          0.03848        0.51078       -0.51023
H          1.60682        0.43925        0.13800
H          0.75661       -2.64105        1.68897
H          2.65541       -3.92186        1.47545
H          5.09963       -4.10772        1.61443
H          6.50735       -2.06600        1.71807
H          5.44328        0.16090        1.75840
