29

C         -0.05031        0.13286        0.61525
C         -0.33005        1.62347        0.80078
C          0.84246        2.58166        0.39373
C          1.25528        2.36823       -1.08642
C          0.27621        2.42013       -2.10381
C          0.59749        2.22000       -3.44905
C          1.90893        1.95144       -3.81666
C          2.89744        1.90443       -2.84017
C          2.57802        2.12478       -1.49421
C          0.27341        4.01042        0.58071
O         -0.33792        4.64293       -0.28116
N          0.36280        4.56390        1.83158
C          1.17548        4.14124        2.82922
S          1.25946        4.94830        4.27814
N          1.94203        3.05113        2.58106
C          1.95737        2.30949        1.42612
O          2.78849        1.40418        1.34500
H          0.18618       -0.11368       -0.42349
H         -0.93533       -0.44650        0.89811
H          0.77438       -0.20612        1.24817
H         -1.23890        1.87285        0.23828
H         -0.59278        1.78378        1.85558
H         -0.76294        2.64127       -1.86445
H         -0.18054        2.27844       -4.20581
H          2.16115        1.78513       -4.86017
H          3.92600        1.69260       -3.12237
H          3.40107        2.07951       -0.78603
H         -0.10670        5.45360        1.95022
H          2.62496        2.78473        3.28006
