72

C          1.73044        0.24451       -0.36415
C          0.90680        1.28524        0.39502
C          1.04635        2.64919       -0.28673
C         -0.57402        0.88072        0.47620
C         -0.83009       -0.45903        1.18813
C         -0.54061       -0.47870        2.70944
C         -1.37919        0.52928        3.53363
C         -2.86160        0.40786        3.08070
C         -1.02866        0.53371        5.13293
C         -1.30702        1.98412        5.59934
C         -2.83333        2.04491        5.65428
C         -3.13331        0.59156        6.07185
C         -4.34251       -0.16537        6.43536
C         -4.92952       -1.26810        5.90070
C         -5.95407       -1.99173        6.67147
C         -6.61481       -1.35297        7.63921
C         -7.79358       -1.87200        8.43151
C         -8.87621       -0.78321        8.45289
O        -10.08878       -1.25755        9.02703
C         -8.38876        0.49082        9.17951
C         -6.84635        0.63408        9.20506
C         -6.20495        0.08740        7.92069
C         -6.76922        1.01085        6.73939
C         -4.63523        0.16770        7.86926
C         -3.42462       -0.68278        8.52556
C         -1.87559       -0.59365        7.71229
C         -1.94537       -0.35903        6.07290
C         -1.95851       -1.78790        5.49998
H          1.30341        0.05081       -1.35446
H          1.77089       -0.70377        0.17978
H          2.76245        0.58207       -0.49749
H          1.30980        1.37956        1.40998
H          0.65736        2.62625       -1.31057
H          0.50177        3.42167        0.26643
H          2.09802        2.95224       -0.33224
H         -1.14285        1.68479        0.95840
H         -0.98192        0.80972       -0.54148
H         -1.87267       -0.74822        1.00528
H         -0.25387       -1.25616        0.70940
H         -0.74040       -1.49559        3.05941
H          0.52476       -0.29424        2.88077
H         -1.04824        1.51632        3.18104
H         -3.24150       -0.61089        3.15453
H         -3.58150        1.04239        3.57855
H         -2.97217        0.71609        2.03609
H          0.03190        0.29634        5.27307
H         -0.87982        2.13903        6.59887
H         -0.89159        2.75692        4.94710
H         -3.29514        2.40544        4.74109
H         -3.14831        2.77799        6.41544
H         -2.93040        1.01952        7.06097
H         -4.63975       -1.69422        4.95006
H         -6.17139       -3.02655        6.40080
H         -7.49171       -2.10847        9.45971
H         -8.19012       -2.80050        8.00690
H         -9.12711       -0.53440        7.41285
H        -10.02989       -1.16600        9.99142
H         -8.83455        1.35911        8.67209
H         -8.77661        0.55122       10.20108
H         -6.59605        1.69627        9.32889
H         -6.44909        0.11378       10.08304
H         -7.83368        1.23245        6.81488
H         -6.23806        1.96930        6.71351
H         -6.67063        0.56002        5.74353
H         -4.43569        1.21952        8.12659
H         -3.25462       -0.34081        9.55420
H         -3.68450       -1.74731        8.58031
H         -1.32977       -1.51551        7.95452
H         -1.31384        0.22828        8.17519
H         -0.92639       -2.14802        5.39341
H         -2.45902       -2.50777        6.15625
H         -2.42781       -1.87290        4.52296
