9

N          0.95898        0.07069        0.01218
C          0.26778        0.80183       -0.88955
O         -0.95916        0.79012       -0.87510
N          0.95907        1.53022       -1.78788
O          2.35234        1.61250       -1.88935
H          0.39714       -0.45943        0.66599
H          1.95481       -0.00222        0.10210
H          0.42720        2.07450       -2.45914
H          2.68476        1.04055       -1.18396
