18

C          1.02046        0.03399       -0.02720
C          0.53866        1.44235        0.28766
C          1.15092        2.49146       -0.63164
O         -0.87474        1.56475        0.31465
P         -1.84799        1.06502       -0.87113
C         -2.36631       -0.56117       -0.36276
O         -3.00200        1.99989       -1.09008
F         -0.93596        1.03910       -2.14751
H          0.73675       -0.27873       -1.03615
H          0.58046       -0.68475        0.67146
H          2.11020       -0.03312        0.05353
H          0.86881        1.67562        1.30688
H          0.90877        2.30625       -1.68158
H          0.76314        3.48635       -0.38781
H          2.24109        2.50872       -0.53510
H         -2.85670       -0.52047        0.61370
H         -3.07735       -0.96931       -1.08664
H         -1.52316       -1.25171       -0.29807
