29

C          1.06026        0.50335       -0.10453
C          0.30918       -0.28367       -0.89841
C         -1.16238       -0.42335       -0.61964
C          0.96119       -1.02608       -2.07215
C          1.71291       -2.28338       -1.59933
C          0.77410       -3.44481       -1.28796
C         -0.09972       -3.81269       -2.49368
C         -1.09794       -4.90403       -2.10684
C         -0.83435       -2.59850       -3.07655
C          0.08078       -1.39166       -3.29604
O         -0.70099       -0.29019       -3.75546
H          0.63349        1.03558        0.74080
H          2.12810        0.62124       -0.26352
H         -1.76133       -0.07211       -1.46386
H         -1.42293       -1.46101       -0.39820
H         -1.47055        0.17036        0.24854
H          1.71968       -0.32963       -2.46340
H          2.41114       -2.59564       -2.38766
H          2.32868       -2.06398       -0.71881
H          0.14864       -3.19524       -0.42340
H          1.37329       -4.31512       -0.99283
H          0.55666       -4.21725       -3.27583
H         -1.70058       -5.20539       -2.96966
H         -0.57826       -5.79173       -1.73140
H         -1.77982       -4.55629       -1.32265
H         -1.68564       -2.32267       -2.44597
H         -1.28936       -2.87485       -4.03755
H          0.75951       -1.64195       -4.12243
H         -0.28035        0.52907       -3.44169
