131

C          1.28345       -0.13347       -0.71578
C          1.21375       -1.31999        0.23355
C          1.60011       -0.96530        1.67198
C          0.73235        0.11472        2.32707
C         -0.75910       -0.22745        2.41076
C         -1.08199       -1.44725        3.28079
C         -0.66990       -1.30227        4.75009
C         -1.33703       -0.12915        5.47776
C         -2.86155       -0.24608        5.59048
C         -3.33789       -1.46407        6.38950
C         -2.83978       -1.48958        7.83881
C         -3.38085       -0.34391        8.70245
C         -4.90218       -0.36652        8.89076
C         -5.43280       -1.66568        9.50533
C         -4.92781       -1.92800       10.92879
C         -5.46023       -0.94481       11.97916
C         -6.98920       -0.85793       12.04880
C         -7.65115       -2.18280       12.42923
N         -7.59185       -2.42538       13.85691
C         -8.17083       -1.76857       14.87739
O         -7.68301       -1.87486       16.00243
N         -9.26972       -1.00946       14.72144
C        -10.26808       -0.97687       13.66829
C        -11.00017       -2.31130       13.52830
C        -12.06183       -2.49454       14.61252
N        -13.26759       -1.73750       14.32978
C        -14.13154       -1.79897       13.30125
O        -14.86535       -0.83357       13.08973
N        -14.21692       -2.86638       12.48807
C        -13.83192       -4.24658       12.70596
C        -14.68297       -4.91096       13.78878
C        -16.05703       -5.36516       13.28301
C        -16.00659       -6.41788       12.16829
C        -15.21519       -7.68060       12.52788
C        -15.87355       -8.53357       13.61695
C        -17.23622       -9.11038       13.21590
C        -17.20312       -9.97024       11.94676
C        -16.34971      -11.23681       12.07627
C        -16.88606      -12.24520       13.09819
C        -18.29689      -12.75926       12.78858
C        -18.41082      -13.51842       11.46138
C        -17.58744      -14.81005       11.40291
C        -17.96264      -15.84717       12.46722
C        -19.40911      -16.34643       12.38384
C        -19.75288      -17.09670       11.09252
C        -18.90756      -18.34514       10.82610
C        -19.01788      -19.38976       11.92634
H          0.54311        0.63056       -0.46025
H          1.08072       -0.45798       -1.74096
H          2.27642        0.32652       -0.69391
H          0.20892       -1.75528        0.20266
H          1.89645       -2.09831       -0.12727
H          1.57542       -1.87810        2.27880
H          2.64303       -0.62512        1.68478
H          1.12500        0.31823        3.33003
H          0.84548        1.05682        1.77871
H         -1.29823        0.64874        2.78850
H         -1.15936       -0.39637        1.40503
H         -2.15793       -1.64735        3.21805
H         -0.59670       -2.33759        2.86515
H         -0.89105       -2.24045        5.27157
H          0.41743       -1.18695        4.81965
H         -0.89525       -0.03762        6.47609
H         -1.09169        0.81263        4.97524
H         -3.25193        0.67088        6.04628
H         -3.30791       -0.28358        4.59042
H         -4.43307       -1.49496        6.36729
H         -3.01586       -2.38435        5.88954
H         -3.10259       -2.45450        8.28545
H         -1.74536       -1.46353        7.86281
H         -2.88822       -0.37883        9.68055
H         -3.09291        0.62107        8.27069
H         -5.19500        0.48806        9.51142
H         -5.39494       -0.20730        7.92469
H         -6.52738       -1.64745        9.48446
H         -5.16252       -2.51771        8.87259
H         -5.19558       -2.95175       11.21064
H         -3.83282       -1.90919       10.95374
H         -5.06701       -1.23318       12.96154
H         -5.06159        0.05628       11.77655
H         -7.25989       -0.07503       12.76751
H         -7.38471       -0.52030       11.08520
H         -8.68351       -2.21270       12.08669
H         -7.17258       -3.03766       11.94487
H         -6.76266       -2.90702       14.18252
H         -9.54529       -0.60585       15.60799
H        -10.96917       -0.17178       13.91389
H         -9.79268       -0.67889       12.73265
H        -11.45396       -2.35582       12.53190
H        -10.29430       -3.14728       13.58833
H        -12.32166       -3.54550       14.74742
H        -11.68857       -2.15452       15.58468
H        -13.36081       -0.85292       14.81315
H        -14.94965       -2.72165       11.80418
H        -13.92056       -4.75372       11.74191
H        -12.77405       -4.30581       12.95372
H        -14.13897       -5.76726       14.20081
H        -14.83267       -4.22545       14.63164
H        -16.62943       -5.75934       14.13103
H        -16.61683       -4.49494       12.91939
H        -17.03220       -6.67904       11.88561
H        -15.57131       -5.97921       11.26423
H        -15.07088       -8.27673       11.62059
H        -14.20067       -7.41919       12.84613
H        -15.19267       -9.34991       13.88420
H        -15.99433       -7.94347       14.53262
H        -17.63372       -9.69270       14.05460
H        -17.95246       -8.29440       13.06842
H        -18.22982      -10.23286       11.67117
H        -16.83301       -9.38014       11.10152
H        -16.27219      -11.71214       11.09208
H        -15.32156      -10.97181       12.34745
H        -16.18788      -13.08730       13.16284
H        -16.88728      -11.79431       14.09701
H        -18.62946      -13.39633       13.61514
H        -19.00433      -11.92284       12.77708
H        -19.46659      -13.74400       11.27455
H        -18.10679      -12.86972       10.63204
H        -17.69204      -15.24945       10.40444
H        -16.52217      -14.57270       11.50526
H        -17.27157      -16.69400       12.39275
H        -17.79410      -15.42889       13.46606
H        -19.60674      -16.99339       13.24608
H        -20.10131      -15.50362       12.49359
H        -20.81008      -17.38698       11.13279
H        -19.66081      -16.41926       10.23540
H        -19.23901      -18.79371        9.88219
H        -17.85602      -18.07296       10.68354
H        -20.06233      -19.66993       12.09571
H        -18.46411      -20.29144       11.64754
H        -18.60039      -19.02611       12.87005
