49

C          0.38119       -0.57802       -0.47402
C         -0.19792       -0.90880        0.86990
O         -1.34359       -0.66731        1.19984
O          0.73659       -1.50474        1.65738
C          0.29821       -1.98833        2.93795
C          0.82634       -1.12614        4.10108
O          2.28100       -1.01637        3.99240
C          2.88216       -0.22040        5.01157
O          4.30541       -0.34240        5.23461
C          5.37830       -0.07197        4.48440
C          5.21879        0.09259        3.01704
O          6.48441        0.01875        5.01116
C          2.34007        1.20936        5.10806
O          2.82853        2.16574        4.09137
C          2.83303        2.36820        2.76346
C          2.36533        1.32335        1.81235
O          3.25741        3.43113        2.31415
C          0.80454        1.19237        5.23138
O          0.28277        1.03154        6.60512
C          0.61863        0.42868        7.76322
C          1.03640       -1.00789        7.79229
O          0.41807        1.00813        8.82805
C          0.15616        0.25811        4.19813
O         -1.29455        0.32057        4.11808
C         -2.32989       -0.03642        4.89249
C         -2.07167       -0.65431        6.21915
O         -3.48181        0.16862        4.52003
H          0.18991        0.47427       -0.69904
H         -0.07096       -1.22190       -1.23107
H          1.46452       -0.73189       -0.47928
H         -0.79029       -2.10426        2.99260
H          0.72669       -2.99260        3.03112
H          0.59619       -1.70833        4.98974
H          2.55758       -0.69854        5.92438
H          5.14699        1.15239        2.77370
H          6.10837       -0.31392        2.52475
H          4.37189       -0.47481        2.64003
H          2.74719        1.64207        6.03012
H          1.37753        1.58111        1.42713
H          3.06867        1.25749        0.97445
H          2.35422        0.34094        2.25184
H          0.45297        2.20365        4.98540
H          2.02929       -1.09987        8.23921
H          0.31452       -1.57546        8.38975
H          1.03597       -1.48524        6.82596
H          0.40692        0.73810        3.25233
H         -2.01839        0.12474        6.98167
H         -2.90586       -1.31763        6.46920
H         -1.18138       -1.27407        6.20151
