17

N         -4.13042        0.00375       -0.17721
C         -2.74488        0.01726        0.00132
C         -2.04312        1.22064       -0.03251
C         -0.64769        1.23201        0.01438
C          0.06582        0.03076        0.05060
Br         1.95958        0.15084        0.10869
C         -0.61150       -1.19415        0.02339
C          0.11306       -2.51352        0.02527
F          0.92463       -2.68004       -1.05519
F          0.89521       -2.69171        1.12590
F         -0.72927       -3.58875        0.01001
C         -2.02140       -1.17819       -0.02325
H         -4.59985        0.84542        0.14351
H         -4.58879       -0.83889        0.15636
H         -2.57718        2.16550       -0.09577
H         -0.12727        2.18718        0.00697
H         -2.56449       -2.12126       -0.08033
