46

C          1.07477       -0.22087        0.34518
C          0.91637        1.23823        0.74340
C          1.43545        2.21894       -0.31186
C          0.73330        2.16181       -1.67408
C         -0.78659        2.35713       -1.64464
C         -1.26614        3.66986       -1.01716
C         -0.88825        4.93875       -1.78575
C         -1.55037        5.10359       -3.15546
C         -3.09080        5.13000       -3.22028
C         -3.86298        6.32195       -2.56721
C         -4.04864        6.20373       -1.02845
C         -4.82111        5.00551       -0.48495
C         -5.22938        6.39075       -3.26073
O         -6.23411        5.79538       -2.88099
N         -5.28467        7.09881       -4.43043
C         -4.40871        8.06905       -4.79904
O         -4.70062        8.90722       -5.64565
N         -3.24057        8.13300       -4.11146
C         -3.10582        7.62219       -2.85211
O         -2.37232        8.18338       -2.04162
H          0.45894       -0.46962       -0.52391
H          0.76329       -0.87094        1.16926
H          2.11819       -0.45179        0.10860
H         -0.13470        1.44255        0.97418
H          1.47321        1.40608        1.67335
H          1.36469        3.23607        0.09125
H          2.50578        2.03432       -0.46884
H          1.18501        2.91641       -2.32874
H          0.94803        1.19627       -2.14790
H         -1.17045        2.27523       -2.66804
H         -1.24242        1.52524       -1.09450
H         -2.35148        3.61616       -0.90860
H         -0.87725        3.75219        0.00396
H         -1.11148        5.81174       -1.16643
H          0.19918        4.96525       -1.92474
H         -1.15268        6.01274       -3.62230
H         -1.20798        4.28594       -3.80263
H         -3.33122        5.11522       -4.29399
H         -3.48562        4.17721       -2.85220
H         -3.07244        6.21249       -0.53548
H         -4.55545        7.10873       -0.66413
H         -4.54523        4.06511       -0.96380
H         -4.62652        4.90213        0.58834
H         -5.90058        5.14201       -0.59149
H         -6.19300        7.14062       -4.87312
H         -2.71437        8.97984       -4.28399
