51

C          0.97552        0.22769        0.62102
N          0.45683       -1.07871        0.95090
C         -0.99309       -1.18828        1.10375
C         -1.77778       -1.59997       -0.12001
C         -2.13248       -0.68270       -1.11274
C         -2.74104       -1.11591       -2.30003
C         -2.99987       -2.47850       -2.54195
C         -3.55169       -2.95785       -3.89669
C         -5.06194       -2.66685       -3.95329
C         -2.85961       -2.23446       -5.07634
C         -3.34434       -4.47315       -4.13617
C         -2.72058       -3.37324       -1.49740
C         -2.12393       -2.94244       -0.30783
C          1.22295       -2.25505        0.52949
C          1.11046       -2.76787       -0.90372
C          1.00070       -1.86534       -1.97594
C          0.76093       -2.30341       -3.27397
C          0.65099       -3.66162       -3.53653
C          0.84350       -4.60128       -2.51873
C          0.76214       -5.97010       -2.82354
C          1.00929       -6.93691       -1.85328
C          1.34584       -6.54378       -0.56700
C          1.39420       -5.18454       -0.24139
C          1.12176       -4.17125       -1.19372
H          0.71856        0.94240        1.41125
H          0.58015        0.62351       -0.31727
H          2.06977        0.22384        0.56079
H         -1.20165       -1.90037        1.91323
H         -1.40559       -0.24035        1.47648
H         -1.90213        0.37237       -0.98990
H         -2.97829       -0.36528       -3.04930
H         -5.27127       -1.59536       -3.85844
H         -5.49238       -3.00395       -4.90366
H         -5.59621       -3.18026       -3.14545
H         -1.77205       -2.35465       -5.03325
H         -3.19656       -2.63618       -6.03946
H         -3.07601       -1.16139       -5.09446
H         -2.28903       -4.75306       -4.03935
H         -3.92331       -5.08262       -3.43335
H         -3.66844       -4.76457       -5.14233
H         -2.91494       -4.43726       -1.59325
H         -1.87216       -3.68259        0.44856
H          2.28873       -2.09555        0.73812
H          0.91342       -3.04655        1.21981
H          1.04508       -0.79664       -1.81097
H          0.62030       -1.58024       -4.07221
H          0.42298       -3.98049       -4.55040
H          0.51225       -6.29442       -3.83141
H          0.95431       -7.99149       -2.10824
H          1.57266       -7.29066        0.18920
H          1.67743       -4.93243        0.77649
