12

O          0.91549       -0.00563       -0.02495
C          0.36536        0.82199       -0.96025
C          0.86184        0.87941       -2.23960
C          0.20946        1.76201       -3.06538
O          0.59112        1.92844       -4.36502
N         -0.82638        2.51935       -2.69116
C         -1.21817        2.36990       -1.41993
N         -0.66790        1.54633       -0.51952
H          1.68701       -0.44572       -0.40831
H          1.69449        0.27997       -2.56885
H          1.33348        1.33762       -4.55395
H         -2.05739        2.97136       -1.08918
