43

C          0.85897       -0.12980       -0.28295
C          0.52451        0.83620       -1.40569
O          1.10489        0.39843       -2.64657
C          2.40343        0.77776       -2.85365
O          3.06813        1.39289       -2.02663
C          2.92723        0.30483       -4.23956
O          1.88154        0.75394       -5.15600
C          1.88464        0.53358       -6.49063
O          2.74212       -0.05456       -7.13250
C          0.64247        1.08237       -7.14411
C         -0.59523        0.25118       -6.89181
C         -0.52094       -1.15279       -6.99096
C         -1.64842       -1.94792       -6.77685
C         -2.86876       -1.34905       -6.48355
Cl        -4.25785       -2.32716       -6.21551
C         -2.97527        0.03622       -6.41476
C         -1.84607        0.83244       -6.62422
Cl        -2.06625        2.54527       -6.55644
C          4.27243        1.01452       -4.48643
C          5.15584        0.39812       -5.56289
C          5.27986       -1.11723       -5.44847
C          3.96990       -1.86240       -5.21071
C          3.07247       -1.22447       -4.15348
H          0.51201       -1.13872       -0.52753
H          0.38906        0.18675        0.65314
H          1.93982       -0.19422       -0.12313
H         -0.56036        0.86804       -1.55065
H          0.84174        1.85673       -1.15953
H          0.54732        2.12030       -6.81272
H          0.81750        1.12315       -8.22715
H          0.41903       -1.64650       -7.23920
H         -1.56663       -3.03011       -6.84544
H         -3.93634        0.49722       -6.20344
H          4.09991        2.07155       -4.72450
H          4.86884        0.99771       -3.56398
H          6.15839        0.83842       -5.48699
H          4.80574        0.68758       -6.55614
H          5.96553       -1.34863       -4.62494
H          5.75142       -1.50491       -6.35992
H          4.20293       -2.88948       -4.90178
H          3.42161       -1.98035       -6.14865
H          3.49824       -1.48550       -3.17412
H          2.08577       -1.70285       -4.19638
