37

C          1.41734        0.15258       -0.10195
N          0.69286       -0.12540       -1.33050
C         -0.77642       -0.05472       -1.27574
C         -1.33033        1.26988       -1.82179
C         -1.21826        2.38783       -0.79972
C         -2.01831        2.07352        0.48445
C         -1.61356        3.08404        1.56896
C         -1.96105        4.43666        1.40056
C         -1.62709        5.39497        2.36206
C         -0.95723        5.01736        3.52638
Cl        -0.61522        6.24478        4.69275
C         -0.59161        3.68198        3.70911
Cl         0.21612        3.13179        5.13521
C         -0.89282        2.73151        2.72360
C         -2.00049        0.59269        0.87922
C         -2.66690        0.17549        2.05030
C         -2.65133       -1.16047        2.45577
C         -2.00798       -2.11457        1.68013
C         -1.40214       -1.73793        0.48368
C         -1.40367       -0.39335        0.06390
H          1.27904       -0.64272        0.63639
H          1.15341        1.11239        0.34653
H          2.48944        0.18296       -0.32351
H          1.03671        0.47588       -2.07655
H         -1.12496       -0.81632       -1.98750
H         -2.38811        1.13910       -2.09049
H         -0.81750        1.55341       -2.74908
H         -0.16361        2.57946       -0.57280
H         -1.59372        3.31571       -1.25052
H         -3.07667        2.27302        0.25467
H         -2.49619        4.75945        0.50839
H         -1.90122        6.43452        2.19864
H         -0.57316        1.70340        2.88173
H         -3.18971        0.89918        2.67212
H         -3.14130       -1.45210        3.38173
H         -1.98618       -3.15450        1.99554
H         -0.91709       -2.49424       -0.13003
