27

C          0.98623        0.11281        0.08039
C          0.30808        0.76377       -0.87628
C          0.96092        1.56822       -1.96929
C          0.46837        1.08774       -3.33559
O         -0.96138        1.07740       -3.43455
C         -1.62592        0.30022       -2.42103
C         -1.43518       -1.18034       -2.66978
C         -2.39164       -2.09633       -2.92240
C         -2.04066       -3.54592       -3.11752
C         -3.85211       -1.75990       -3.02569
C         -1.19609        0.72938       -1.00305
H          0.47342       -0.47343        0.83733
H          2.07026        0.14296        0.12967
H          0.68542        2.62096       -1.83123
H          2.05368        1.50434       -1.92506
H          0.86257        0.09387       -3.57480
H          0.83890        1.76647       -4.11138
H         -2.68777        0.54977       -2.52089
H         -0.40550       -1.52614       -2.60572
H         -2.54476       -4.16129       -2.36510
H         -2.35275       -3.88185       -4.11151
H         -0.96446       -3.72830       -3.02727
H         -4.22025       -1.33875       -2.08460
H         -4.02942       -1.04609       -3.83649
H         -4.45082       -2.65173       -3.23979
H         -1.65374        0.07838       -0.24863
H         -1.56448        1.74680       -0.81594
