17

C          1.24165        0.13222        0.27527
C          0.69057        1.54783        0.19202
C          0.98723        2.23253       -1.14491
C          0.22759        1.65271       -2.33702
O         -1.17500        1.94151       -2.21770
C         -1.98585        0.90444       -1.89841
O         -1.65665       -0.25021       -1.68356
H          0.80628       -0.52103       -0.48527
H          1.01598       -0.30137        1.25477
H          2.32886        0.12935        0.14760
H         -0.38679        1.53778        0.38829
H          1.14699        2.14070        0.99388
H          0.71907        3.29159       -1.04356
H          2.06399        2.18816       -1.34573
H          0.56794        2.15436       -3.24986
H          0.42850        0.58535       -2.47595
H         -3.02399        1.26828       -1.85243
