28

C          0.93925       -0.05514        0.02200
N          0.54952        0.47782       -1.27119
C          0.80626        1.70722       -1.56648
N          1.44512        2.59065       -0.74425
C          1.99290        3.89647       -1.00659
N          0.44655        2.21506       -2.77634
C         -0.46059        1.55321       -3.69641
C         -1.82107        2.22435       -3.74755
C         -1.96099        3.61651       -3.87804
C         -3.22499        4.20462       -3.97289
C         -4.36767        3.40944       -3.96650
C         -4.24780        2.02605       -3.86107
C         -2.98469        1.43792       -3.75088
H          0.56249       -1.07841        0.11638
H          0.51401        0.52281        0.84947
H          2.02898       -0.09782        0.12025
H          1.79355        2.18522        0.11390
H          1.74692        4.55645       -0.16839
H          3.08292        3.84108       -1.08089
H          1.61460        4.37595       -1.91148
H          0.42923        3.21407       -2.84861
H         -0.03022        1.59971       -4.70360
H         -0.57067        0.48815       -3.46161
H         -1.08884        4.26264       -3.91441
H         -3.31610        5.28424       -4.05934
H         -5.35002        3.86682       -4.04866
H         -5.13807        1.40237       -3.86636
H         -2.91439        0.35463       -3.67151
