28

N          1.31160       -0.04569       -0.09060
N          0.73644       -0.07580       -1.36785
C         -0.22940       -0.97385       -1.76672
O         -0.73687       -0.85792       -2.88406
C         -0.65490       -2.10564       -0.81308
O          0.48565       -2.86362       -0.38082
C         -1.46823       -1.56265        0.38797
O         -2.68122       -0.93647       -0.06450
C         -1.83469       -2.69107        1.39914
O         -0.66452       -3.34799        1.90870
C         -2.66805       -2.14350        2.59333
O         -3.91337       -1.58596        2.16381
C         -2.97294       -3.23001        3.63928
O         -1.80164       -3.75287        4.25713
H          1.56445       -1.00183        0.19171
H          2.20209        0.45901       -0.13279
H          0.92310        0.67760       -2.03044
H         -1.29060       -2.78690       -1.39272
H          0.89497       -3.22135       -1.19370
H         -0.89263       -0.81019        0.93488
H         -2.44044       -0.18328       -0.63823
H         -2.44249       -3.43957        0.87466
H         -0.04050       -3.45333        1.15769
H         -2.08815       -1.35320        3.08648
H         -3.74160       -1.11409        1.32133
H         -3.61382       -2.82074        4.42788
H         -3.52842       -4.05689        3.18286
H         -1.14566       -3.87518        3.53720
