63

C          1.09792        0.25171       -0.74313
C          0.93756       -1.15795       -0.19465
C          1.45744       -1.31519        1.23597
C          0.73416       -0.47711        2.29596
C         -0.75435       -0.79073        2.48846
C         -1.08692       -2.23850        2.86751
C         -0.34353       -2.79406        4.08693
C         -0.58955       -2.05809        5.41164
C         -1.99737       -2.20704        6.00389
C         -2.33972       -3.65264        6.37975
C         -2.66193       -3.89408        7.85688
C         -3.87994       -3.17644        8.44791
C         -5.22750       -3.23032        7.70209
N         -5.85396       -4.54475        7.61591
C         -7.22763       -4.64533        8.10928
C         -8.38516       -3.94660        7.35139
C         -8.98861       -4.76120        6.21332
O         -9.44526       -3.67938        8.28364
C         -5.42280       -5.48098        6.58950
C         -5.75984       -5.29762        5.08658
C         -5.81714       -3.87967        4.53367
O         -4.79728       -6.02436        4.30700
H          0.46040        0.96373       -0.21123
H          0.81513        0.27859       -1.80036
H          2.13643        0.58884       -0.66306
H         -0.11291       -1.46080       -0.25822
H          1.49841       -1.84467       -0.84058
H          1.41292       -2.37546        1.50976
H          2.52133       -1.04603        1.25389
H          1.25577       -0.60591        3.25177
H          0.83629        0.58691        2.05245
H         -1.15106       -0.11980        3.25980
H         -1.29967       -0.53832        1.57099
H         -2.16830       -2.31901        3.03001
H         -0.86885       -2.88673        2.00953
H         -0.60550       -3.85279        4.19053
H          0.73412       -2.78389        3.88622
H          0.13187       -2.43222        6.14920
H         -0.36893       -0.99202        5.28892
H         -2.06938       -1.55471        6.88090
H         -2.73628       -1.83379        5.28468
H         -3.17625       -3.97599        5.76373
H         -1.51427       -4.32532        6.12208
H         -2.77668       -4.97274        8.01577
H         -1.78093       -3.61196        8.44859
H         -4.02922       -3.56097        9.46627
H         -3.61895       -2.11805        8.57607
H         -5.89035       -2.56111        8.26891
H         -5.12736       -2.74949        6.72903
H         -7.48786       -5.70230        8.25729
H         -7.22644       -4.25222        9.13667
H         -8.06369       -2.96922        6.97827
H         -9.03976       -5.82532        6.46809
H        -10.01367       -4.43809        5.99974
H         -8.42318       -4.65317        5.28989
H         -9.82956       -4.53284        8.54916
H         -4.34487       -5.63151        6.68359
H         -5.79826       -6.47766        6.86541
H         -6.71583       -5.78718        4.88736
H         -4.85142       -3.37238        4.59124
H         -6.07040       -3.90511        3.46791
H         -6.56853       -3.26777        5.03760
H         -3.92541       -5.61657        4.45873
