17

O          0.95553        0.06825        0.05695
S          2.38248       -0.14776        0.06494
O          3.05211       -0.66756       -1.10799
O          3.03959        1.31810        0.24631
C          2.95669       -0.94317        1.50490
S          2.38247       -0.25582        2.99945
O          0.95552       -0.04098        3.02330
O          3.05210       -0.86049        4.13098
O          3.03958        1.21940        2.92639
S          2.54360       -2.64638        1.44217
O          2.93191       -3.23015        0.17795
O          2.93190       -3.32155        2.66004
O          0.93358       -2.61117        1.44347
H          2.72163        1.89685       -0.48230
H          4.04983       -0.89293        1.50675
H          2.72162        1.74300        3.69559
H          0.58052       -3.52845        1.40969
