28

C          1.05878        0.45510       -1.60844
C          0.14825       -0.00599       -0.53988
O         -0.67293        0.95089       -0.02254
N         -1.52373        0.38077        0.90738
C         -1.20225       -0.91358        0.92909
C         -0.11285       -1.21278        0.08048
C          0.47210       -2.51316       -0.14768
O         -0.23793       -3.51650       -0.20486
N          1.82130       -2.65372       -0.38041
C          2.92417       -1.86667       -0.00681
C          4.13704       -2.12288       -0.65525
C          5.27672       -1.36763       -0.36121
C          5.23133       -0.35640        0.60828
C          6.46244        0.46948        0.89737
F          7.52353       -0.29328        1.27950
F          6.88006        1.17154       -0.19254
F          6.28500        1.38754        1.88717
C          4.02729       -0.13679        1.29057
C          2.88662       -0.89244        0.99208
H          0.53978        1.13568       -2.29105
H          1.91204        0.99226       -1.18310
H          1.43697       -0.38034       -2.20450
H         -1.76374       -1.58335        1.56693
H          2.03068       -3.54591       -0.81353
H          4.20602       -2.89248       -1.42131
H          6.20352       -1.56777       -0.89816
H          3.96635        0.62585        2.06685
H          1.99237       -0.70796        1.58031
