45

C          1.00048       -0.42000        0.16826
C          0.64496        0.33983       -1.10348
C          0.92363       -0.53703       -2.33495
C         -0.82643        0.80212       -1.14873
C         -1.44746        1.72430       -0.02794
N         -1.02438        3.16428       -0.07269
C         -1.44947        3.92202        1.11063
C          0.41679        3.35357       -0.22851
C         -3.03451        1.55326       -0.15118
C         -3.51542        1.77244       -1.72162
C         -3.33410        3.00568       -2.38101
C         -3.59035        3.16934       -3.74733
C         -4.07101        2.09694       -4.49071
Cl        -4.34052        2.27297       -6.17999
C         -4.31722        0.88035       -3.87385
C         -4.04629        0.72467       -2.51023
C         -3.49795        0.20551        0.55860
C         -4.80655        0.92027        0.93807
C         -3.99839        2.22630        0.91730
H          0.39039       -1.32184        0.27875
H          0.86411        0.20317        1.05612
H          2.05259       -0.72640        0.14356
H          1.32419        1.18819       -1.18744
H          0.33902       -1.46284       -2.30801
H          0.66805       -0.00395       -3.25815
H          1.98379       -0.80437       -2.39171
H         -0.97118        1.29945       -2.11668
H         -1.42806       -0.11640       -1.19530
H         -1.13990        1.31707        0.94363
H         -1.25778        3.38314        2.04491
H         -0.94034        4.89141        1.18004
H         -2.50490        4.18908        1.04212
H          0.99215        2.76531        0.49466
H          0.72168        3.12129       -1.25125
H          0.70473        4.40389       -0.09624
H         -2.92624        3.84939       -1.82480
H         -3.38705        4.12364       -4.22160
H         -4.69694        0.03615       -4.44484
H         -4.22384       -0.25203       -2.07027
H         -3.60919       -0.69177       -0.05266
H         -2.90122       -0.07261        1.43777
H         -5.23804        0.64796        1.90486
H         -5.59283        0.86752        0.17692
H         -3.54648        2.43368        1.89414
H         -4.55625        3.10751        0.58768
