53

C          1.25175        0.24310        0.43917
C          0.59650       -0.58569       -0.38255
C         -0.85348       -0.44470       -0.74646
C         -1.07333        0.04247       -2.18361
C         -0.42933       -0.80490       -3.29140
C         -0.78533       -2.29426       -3.28633
C         -2.27804       -2.59170       -3.39464
C         -2.88293       -2.33693       -4.78445
C         -3.10724       -3.59214       -5.63918
C         -3.95348       -4.72184       -5.03935
C         -5.46053       -4.58181       -5.18393
O         -6.03911       -4.99075       -6.19148
N         -6.21136       -4.05110       -4.17668
C         -5.77489       -3.20041       -3.06749
C         -6.23901       -1.74250       -3.25658
C         -7.68482       -1.35583       -3.01264
C         -7.97207        0.01519       -2.88558
C         -9.27721        0.46491       -2.67930
C        -10.32267       -0.44876       -2.60508
C        -10.06077       -1.80817       -2.74279
C         -8.75320       -2.25815       -2.94943
C         -6.03708       -3.65668       -1.63447
O         -5.48244       -3.20331       -0.64746
O         -7.01664       -4.56851       -1.49706
H          0.76405        1.09729        0.89784
H          2.30171        0.08269        0.66422
H          1.13314       -1.42897       -0.81225
H         -1.35207       -1.40821       -0.58909
H         -1.34618        0.26009       -0.06412
H         -2.15261        0.12022       -2.36324
H         -0.68629        1.06585       -2.27271
H         -0.70223       -0.36741       -4.25849
H          0.66136       -0.71481       -3.22247
H         -0.25464       -2.79599       -4.10404
H         -0.41148       -2.74847       -2.36095
H         -2.42280       -3.63021       -3.08615
H         -2.82192       -1.99122       -2.65709
H         -3.83856       -1.81938       -4.67328
H         -2.25289       -1.64270       -5.35212
H         -3.55022       -3.27886       -6.59323
H         -2.11812       -4.00279       -5.87922
H         -3.70248       -5.63803       -5.59390
H         -3.69835       -4.95761       -4.00447
H         -7.20251       -4.09328       -4.37664
H         -4.69334       -3.20480       -3.11622
H         -5.62335       -1.12099       -2.59092
H         -6.00694       -1.43160       -4.28390
H         -7.17084        0.74978       -2.94818
H         -9.47543        1.52870       -2.58001
H        -11.34009       -0.10303       -2.44511
H        -10.87685       -2.52505       -2.69259
H         -8.61337       -3.32850       -3.05160
H         -7.11128       -4.64792       -0.52316
