38

C          1.17083       -0.39508        0.14565
C          0.74799        0.75044       -0.77975
C          1.06552        0.57314       -2.26165
C          0.83900       -0.72623       -2.77153
C          1.24875       -1.09155       -4.03808
C          1.98565       -0.18936       -4.77880
C          2.24867        1.11896       -4.31026
C          3.29393        1.88737       -5.11265
C          4.52524        1.10143       -5.57123
C          1.58546        1.59328       -3.12747
N          1.44096        3.02619       -2.81552
C          1.72600        4.05920       -3.80393
O          0.62350        4.96728       -3.95091
C         -0.41512        4.41927       -4.76020
C          0.63765        3.50946       -1.76237
O         -0.48006        3.06403       -1.49553
C          1.14150        4.74701       -1.02347
Cl         2.83777        4.55276       -0.52444
H          0.59899       -1.30983       -0.03673
H          0.98910       -0.11201        1.18843
H          2.23528       -0.62386        0.03431
H         -0.33193        0.88879       -0.66213
H          1.27572        1.62385       -0.38923
H          0.33830       -1.47979       -2.16826
H          1.06379       -2.09484       -4.41034
H          2.37822       -0.53045       -5.73379
H          2.81237        2.30550       -6.00476
H          3.70329        2.69697       -4.50121
H          4.27746        0.29845       -6.27102
H          5.21509        1.77416       -6.09302
H          5.05419        0.66603       -4.71787
H          2.59154        4.63613       -3.46372
H          1.92571        3.69201       -4.80005
H         -0.03176        4.14544       -5.74825
H         -0.86675        3.54730       -4.27936
H         -1.18513        5.18397       -4.88885
H          1.03787        5.65381       -1.62155
H          0.55630        4.86748       -0.10684
