27

C          1.24476        0.15720        0.17711
O          0.70968        0.08581       -1.13961
C          0.98737        1.17634       -1.95756
C          0.00822        1.59835       -2.76704
C          0.22308        2.65984       -3.73396
C         -0.78958        3.04875       -4.62325
C         -0.49614        4.01698       -5.60468
C         -1.21183        4.61617       -6.68555
C         -2.61120        4.34633       -7.09166
C         -0.32154        5.48592       -7.28303
O          0.87782        5.47109       -6.64765
C          0.77830        4.57415       -5.62986
C          1.79875        4.24164       -4.74410
C          1.47829        3.25794       -3.80607
O          2.50471        2.85865       -2.92524
C          2.34231        1.81839       -2.01052
O          3.27604        1.46765       -1.29668
H          0.71106       -0.57796        0.78764
H          1.08679        1.14472        0.62242
H          2.30143       -0.12131        0.18868
H         -0.96360        1.11636       -2.73820
H         -1.77501        2.59423       -4.58603
H         -2.76720        3.27275       -7.24003
H         -3.30551        4.69218       -6.31933
H         -2.86071        4.85554       -8.02791
H         -0.38576        6.15127       -8.13333
H          2.77886        4.69618       -4.80478
