12

C          1.01678        0.05721       -0.02087
O          0.53871        1.40031       -0.00309
C          0.93779        2.11038        1.08150
O          1.64024        1.69516        1.99091
O          0.42230        3.36105        0.98207
C          0.76987        4.21611        2.06875
H          0.64194       -0.42441       -0.92832
H          0.64002       -0.49682        0.84475
H          2.11093        0.03855       -0.04698
H          0.38397        3.81612        3.01176
H          1.85487        4.35149        2.12004
H          0.30850        5.19202        1.89362
