35

C          0.73563        0.06083       -0.20938
C          0.33679        0.46476        1.21954
C          0.44377        1.98770        1.37735
C         -1.13660        0.06187        1.43709
N          1.09752       -0.26100        2.24235
C          2.56295       -0.30137        2.18174
C          3.31641        0.88297        2.84360
O          2.94175        1.00065        4.21657
C          4.83017        0.79438        2.81015
C          5.58137        1.97862        2.73160
C          6.98130        1.94660        2.71785
Cl         7.82759        3.45281        2.59655
C          7.68613        0.73629        2.82636
N          9.09025        0.69407        2.66418
C          6.92791       -0.44599        2.87834
Cl         7.71030       -1.99004        2.95638
C          5.52656       -0.41871        2.89737
H          0.04241        0.48622       -0.94466
H          0.71877       -1.02798       -0.33545
H          1.73701        0.41805       -0.47242
H         -0.29799        2.49855        0.75169
H          0.26538        2.29824        2.41315
H          1.42392        2.36228        1.06932
H         -1.27439       -1.02146        1.33480
H         -1.49032        0.35157        2.43399
H         -1.79264        0.54560        0.70383
H          0.76756       -0.06428        3.18417
H          2.82182       -1.21466        2.73067
H          2.92461       -0.46260        1.16141
H          3.02967        1.81236        2.34428
H          2.01376        1.28556        4.22402
H          5.07211        2.93951        2.68233
H          9.51021       -0.14361        3.06100
H          9.54937        1.55477        2.95336
H          4.99110       -1.36037        2.98658
