26

C          0.79582       -0.31382       -0.44859
C          0.63337       -1.38168        0.62346
C          1.41854       -1.08758        1.90174
O          0.77193       -0.08636        2.70149
C          1.14861        1.20131        2.50392
O          1.98778        1.56478        1.68628
N          0.43402        2.11968        3.22524
C         -0.37427        1.95241        4.36196
C         -1.24593        2.99751        4.69049
C         -2.05066        2.92127        5.83013
C         -1.96848        1.81181        6.66741
C         -1.08849        0.77686        6.35981
C         -0.29845        0.84344        5.20787
H          0.32108        0.62601       -0.15316
H          0.32463       -0.64029       -1.38122
H          1.85371       -0.12243       -0.65597
H         -0.43295       -1.48708        0.85435
H          0.98062       -2.33551        0.21015
H          1.43339       -1.99530        2.51552
H          2.46399       -0.83134        1.69558
H          0.53107        3.05531        2.85554
H         -1.32662        3.87383        4.05246
H         -2.73823        3.72964        6.06497
H         -2.58329        1.75617        7.56198
H         -1.00559       -0.08103        7.02240
H          0.40151        0.03475        5.02376
