53

C          1.39095        0.02529       -0.37842
O          1.25414        1.44451       -0.50683
C          0.87877        2.08225        0.63787
O          0.73291        1.49107        1.70745
N          0.69314        3.46446        0.49290
C          0.27812        4.17044       -0.65749
O          0.69996        5.30978       -0.90274
N         -0.81341        3.65777       -1.39524
C         -1.92897        4.58838       -1.46164
O         -2.66933        4.41633       -0.23794
C         -3.17946        3.08269       -0.15722
C         -4.61979        3.10936       -0.69836
O         -4.91741        3.45577       -1.83541
O         -5.52205        2.83160        0.28268
C         -6.86541        3.27045        0.07692
C         -3.07451        2.48874        1.28226
C         -2.94451        1.00090        1.01737
C         -2.98593       -0.04966        1.91371
C         -2.69828       -1.33617        1.43465
Cl        -2.67187       -2.65855        2.53744
C         -2.37985       -1.56829        0.08163
C         -2.28963       -0.50199       -0.81120
C         -2.57552        0.75006       -0.30678
C         -2.27730        2.06249       -0.82899
N         -1.12949        2.31485       -1.37611
C          0.97206        4.26319        1.66419
C          2.11602        4.02458        2.43640
C          2.40353        4.82201        3.54970
C          1.53706        5.84353        3.94626
O          1.95121        6.53540        5.04718
C          1.08041        7.51191        5.59009
F          0.82737        8.49636        4.70176
F         -0.08295        6.95519        5.98996
F          1.67325        8.06704        6.67109
C          0.37825        6.06731        3.20479
C          0.10930        5.29698        2.06137
H          1.11668       -0.43143       -1.33270
H          0.74045       -0.40620        0.39102
H          2.43412       -0.21484       -0.15619
H         -1.59272        5.62721       -1.52181
H         -2.53967        4.36923       -2.34578
H         -6.96078        4.26929        0.51335
H         -7.16129        3.28696       -0.97452
H         -7.52984        2.59462        0.62248
H         -3.92454        2.71854        1.92819
H         -2.16734        2.85481        1.77804
H         -3.17928        0.12273        2.96752
H         -2.14935       -2.57514       -0.25960
H         -1.96368       -0.64225       -1.83656
H          2.82399        3.24685        2.16021
H          3.31956        4.64215        4.10890
H         -0.34046        6.83692        3.47279
H         -0.80501        5.49993        1.50814
