25

N          2.35469       -0.00636       -0.09230
C          0.96507       -0.00430        0.06602
C          0.22878       -1.16633       -0.17847
C         -1.16771       -1.14519       -0.15081
C         -1.83879        0.05826        0.08533
S         -3.61070        0.02473        0.07971
O         -4.01928       -0.62768       -1.14978
O         -4.04005       -0.45670        1.37712
C         -4.21506        1.66716       -0.09525
C         -4.42983        2.45879       -1.20231
N         -4.90349        3.73034       -0.94399
C         -5.06532        3.88717        0.34596
N         -5.53338        5.01921        0.89272
S         -4.64750        2.53493        1.31444
C         -1.11955        1.23941        0.26914
C          0.27887        1.20242        0.23648
H          2.78947       -0.90517        0.09384
H          2.82766        0.75285        0.38816
H          0.73864       -2.10215       -0.39416
H         -1.72270       -2.06464       -0.32763
H         -4.25137        2.15502       -2.22750
H         -5.97070        4.95990        1.80445
H         -6.00242        5.64980        0.25138
H         -1.60490        2.19693        0.42806
H          0.83403        2.13137        0.34659
