31

C          1.49240       -0.35274       -0.10560
C          0.93724       -1.11327        1.08879
C          1.08819       -0.38178        2.42400
C          0.43071        1.00226        2.55800
C         -1.11536        1.09613        2.77502
C         -1.61500        0.19359        3.94079
C         -1.01873        0.47975        5.31378
C         -1.46209        2.58016        3.09516
O         -1.15306        3.44374        2.00099
C         -1.91660        0.69136        1.50951
O         -1.47183        1.36489        0.34102
H          0.97189        0.59346       -0.26936
H          1.37773       -0.95111       -1.01537
H          2.55777       -0.14019        0.02644
H         -0.10389       -1.38256        0.90438
H          1.47890       -2.06491        1.16270
H          0.75182       -1.04151        3.23042
H          2.16486       -0.24423        2.59571
H          0.90988        1.47953        3.42482
H          0.73152        1.62341        1.70727
H         -2.70586        0.29030        4.02619
H         -1.43332       -0.86018        3.69675
H         -1.28318        1.48056        5.66678
H         -1.41435       -0.23500        6.04340
H          0.07001        0.38407        5.31508
H         -2.53314        2.68780        3.29866
H         -0.92275        2.94965        3.97361
H         -0.20470        3.65826        2.06384
H         -1.86285       -0.38330        1.32407
H         -2.98089        0.92313        1.63733
H         -1.48369        2.32096        0.56035
