24

N          0.32511       -0.34513       -0.62003
C          0.43353       -1.71725       -0.10796
C          0.87422       -1.73576        1.35787
O          0.06231       -1.83892        2.27788
N          2.18981       -1.58186        1.67448
C          3.33061       -1.37797        0.79989
C          4.32596       -0.36737        1.37906
O          5.54049       -0.56988        1.31270
N          3.90724        0.83592        1.86230
C          2.57686        1.43151        1.89882
C          1.88219        1.42853        3.25294
O          0.84792        2.02741        3.50891
O          2.47089        0.65871        4.18777
H         -0.23849        0.20479        0.03111
H          1.23969        0.09207       -0.66969
H         -0.54939       -2.19611       -0.16958
H          1.11990       -2.30759       -0.72114
H          2.37938       -1.66251        2.66893
H          3.83625       -2.34592        0.71447
H          3.03066       -1.05273       -0.19719
H          4.66344        1.38501        2.25335
H          2.70103        2.47413        1.59159
H          1.92845        0.93356        1.18300
H          1.87429        0.73744        4.96379
