14

C          1.24146       -0.22177        0.28821
N          0.55714        0.96057        0.74847
C         -0.20351        1.91549        0.21785
O         -0.61519        2.79455        0.98143
N         -0.56071        2.00891       -1.06109
C         -0.34220        1.26342       -2.27541
H          1.13518       -0.42632       -0.76635
H          0.85409       -1.07172        0.85669
H          2.30286       -0.10322        0.52281
H          0.66315        1.14336        1.73868
H         -1.13804        2.83256       -1.17708
H         -1.32068        0.96783       -2.66380
H          0.12809        1.93633       -2.99768
H          0.27220        0.38298       -2.16331
