22

Cl        -2.73719        0.79512       -0.01332
C         -1.23584       -0.04440       -0.00273
C         -1.21507       -1.41799        0.22289
C          0.00330       -2.10207        0.23732
C          1.21629       -1.42236        0.01723
C          2.48867       -2.17820        0.03771
C          2.90837       -2.91321       -1.08960
Cl         1.96072       -2.98590       -2.53821
C          4.11422       -3.61576       -1.08858
C          4.93731       -3.59398        0.03634
Cl         6.41632       -4.48745       -0.05649
C          4.55689       -2.87715        1.17811
Cl         5.59317       -2.85581        2.57362
C          3.33121       -2.17976        1.17890
Cl         2.82470       -1.31669        2.60946
C          1.16490       -0.03301       -0.22069
Cl         2.60102        0.88341       -0.53094
C         -0.05250        0.65336       -0.22353
H         -2.14160       -1.96296        0.38779
H         -0.00110       -3.17626        0.41608
H          4.41523       -4.17819       -1.97065
H         -0.07682        1.72538       -0.39991
