16

O          0.95925        0.07773        0.10762
C          2.18380        0.06498        0.05370
N          2.90431       -1.11020        0.00830
C          4.27749       -1.22486       -0.05696
O          4.87051       -2.29502       -0.09568
C          4.97045        0.06459       -0.07755
N          6.30320        0.34692       -0.14435
C          6.45029        1.74483       -0.14170
O          7.48094        2.38613       -0.19408
N          5.13295        2.24884       -0.06685
C          4.27011        1.19793       -0.03175
N          2.92330        1.22459        0.03366
H          2.37233       -1.96739        0.02231
H          7.05553       -0.32426       -0.19261
H          4.91639        3.23234       -0.04997
H          2.41320        2.09682        0.06564
