77

C          1.19293       -0.32282        0.46899
C          0.97920        1.15507        0.75788
C          1.40433        2.05776       -0.40331
C          0.65053        1.80660       -1.71339
C         -0.87036        1.94694       -1.59461
C         -1.33518        3.35697       -1.21229
C         -0.96829        4.43322       -2.23852
C         -1.51229        4.14509       -3.63672
C         -3.04098        4.19351       -3.69800
C         -3.63692        5.60702       -3.58916
C         -2.90656        6.73242       -4.34273
C         -2.81868        6.56979       -5.84642
O         -2.70966        7.50814       -6.62400
O         -2.89168        5.26724       -6.19781
C         -3.29579        4.90210       -7.52001
C         -4.81833        4.74086       -7.53088
C         -5.58111        6.05580       -7.33831
C         -5.28895        7.08014       -8.43606
C         -5.95462        6.73064       -9.76626
C         -7.47561        6.89849       -9.74126
C         -7.93413        8.30508       -9.33927
C         -7.35559        9.41717      -10.22240
C         -7.77604        9.31594      -11.69234
C         -9.29428        9.34320      -11.90832
C         -9.98305       10.60644      -11.35977
C         -9.56441       11.85005      -12.14349
C        -11.50102       10.43850      -11.38917
H          0.57732       -0.66512       -0.36837
H          0.92032       -0.92160        1.34298
H          2.24190       -0.52335        0.22986
H         -0.07129        1.32941        1.01588
H          1.55978        1.43010        1.64568
H          1.27910        3.10424       -0.10079
H          2.47731        1.92545       -0.58714
H          1.03384        2.49279       -2.47776
H          0.88411        0.80306       -2.08649
H         -1.32768        1.64051       -2.54196
H         -1.25912        1.23545       -0.85877
H         -2.42082        3.33927       -1.06620
H         -0.91953        3.64157       -0.23995
H         -1.33953        5.40277       -1.88660
H          0.12093        4.53698       -2.29709
H         -1.06623        4.85346       -4.34215
H         -1.17137        3.16718       -3.99153
H         -3.37201        3.71725       -4.62717
H         -3.48707        3.56282       -2.92184
H         -4.68042        5.56225       -3.92665
H         -3.67387        5.88323       -2.52793
H         -3.46775        7.65778       -4.16044
H         -1.89730        6.88376       -3.94956
H         -2.91139        5.59513       -8.27186
H         -2.83957        3.92808       -7.72654
H         -5.13049        4.25556       -8.46069
H         -5.10984        4.07108       -6.71110
H         -6.65402        5.84206       -7.28453
H         -5.33709        6.49259       -6.36454
H         -5.59725        8.07084       -8.08809
H         -4.21560        7.17809       -8.61222
H         -5.52375        7.36236      -10.55123
H         -5.71052        5.70355      -10.05800
H         -7.87203        6.64368      -10.73040
H         -7.92113        6.17218       -9.05251
H         -9.02871        8.33769       -9.35114
H         -7.66298        8.50405       -8.29622
H         -7.65195       10.38789       -9.81100
H         -6.26094        9.41629      -10.16807
H         -7.30254       10.12915      -12.25317
H         -7.37676        8.39236      -12.12843
H         -9.49435        9.25133      -12.98332
H         -9.73951        8.45146      -11.45055
H         -9.70936       10.75573      -10.30970
H         -9.78142       11.73527      -13.21074
H        -10.09411       12.73650      -11.78108
H         -8.49292       12.04556      -12.03469
H        -11.80534        9.59804      -10.75539
H        -11.99613       11.33662      -11.00504
H        -11.86449       10.25147      -12.40401
