11

Cl         2.67766       -1.63011       -0.00470
C          1.20386       -0.73957       -0.00393
C         -0.00117       -1.44178       -0.00642
C         -1.20505       -0.73759       -0.00537
Cl        -2.68031       -1.62571       -0.00878
C         -1.14883        0.65401       -0.00161
Cl        -2.55041        1.65097        0.00121
N          0.00113        1.36608        0.00054
C          1.14993        0.65212       -0.00080
Cl         2.55314        1.64678        0.00151
H         -0.00206       -2.52915       -0.00912
