17

O          1.09325       -0.04417       -0.06904
C          2.31076       -0.02969       -0.05713
O          3.07820       -1.07599       -0.42583
C          3.09711        1.12649        0.42794
C          4.26321        1.53474       -0.22633
C          4.96911        2.63105        0.25904
C          4.50176        3.31631        1.38455
C          3.32174        2.93795        2.04498
N          2.95012        3.73281        3.15007
C          2.03311        3.39082        3.79764
S          0.80027        2.98249        4.72147
C          2.61894        1.83184        1.54270
H          4.02357       -0.99308       -0.20044
H          4.60960        1.03213       -1.12621
H          5.87426        2.96769       -0.24157
H          5.06087        4.17700        1.74986
H          1.68848        1.49791        1.99707
