28

C          0.86008       -0.04821        0.12078
N          0.42364       -0.79359        1.28755
C         -0.30612       -0.08241        2.32197
C          0.73643       -2.14771        1.33733
O          1.18242       -2.74585        0.35463
C          0.45397       -2.90514        2.64739
O          0.95455       -2.34958        3.86253
C          2.30478       -2.23898        3.91308
O          3.08792       -2.49984        3.01350
C          2.73496       -1.71026        5.22832
C          3.93324       -0.98749        5.29297
C          4.39340       -0.50291        6.51804
C          3.66619       -0.75060        7.68208
C          2.47658       -1.47821        7.62412
C          2.00658       -1.95691        6.39874
H          0.74250        1.02758        0.27592
H          0.26510       -0.36425       -0.74145
H          1.91420       -0.26653       -0.07838
H         -1.06838       -0.72845        2.76415
H          0.39817        0.23634        3.09446
H         -0.80459        0.79392        1.89697
H         -0.63343       -2.99507        2.74793
H          0.83587       -3.92893        2.54774
H          4.51189       -0.80453        4.38930
H          5.32311        0.05909        6.56504
H          4.03210       -0.38248        8.63788
H          1.92078       -1.68036        8.53668
H          1.08817       -2.53741        6.37074
