26

C          1.01123       -0.06003        0.07400
C          0.51054       -0.11321       -1.33021
C          0.13274        0.95419       -2.06174
C         -0.36304        0.78481       -3.48394
C         -0.36249       -0.71568       -3.84722
C         -1.04575       -1.54049       -2.70612
C          0.36082       -1.45439       -2.00574
C          0.96720       -1.50953       -3.47949
C          2.30375       -0.80277       -3.73936
C          1.06930       -2.92437       -4.08429
H          0.46275       -0.76811        0.70335
H          0.88784        0.93664        0.51009
H          2.07418       -0.31805        0.10669
H          0.18753        1.96136       -1.65884
H         -1.37707        1.19069       -3.56718
H          0.28060        1.34295       -4.17185
H         -0.75585       -0.89919       -4.85224
H         -1.37960       -2.54658       -2.97886
H         -1.88670       -1.06173       -2.19156
H          0.61109       -2.29885       -1.35654
H          3.12645       -1.35208       -3.26784
H          2.50695       -0.75066       -4.81496
H          2.34522        0.21996       -3.35911
H          0.18184       -3.53906       -3.91612
H          1.22178       -2.86651       -5.16785
H          1.91800       -3.46601       -3.65166
