27

O          1.01295        0.20844       -0.11652
C          2.22182        0.06741       -0.01756
O          2.94124        0.49588        1.04090
C          3.05143       -0.52825       -1.08905
C          4.07772       -1.42494       -0.74290
C          4.89398       -1.96545       -1.73377
C          4.69176       -1.60921       -3.06309
C          3.66013       -0.73050       -3.40675
C          2.78740       -0.20833       -2.43726
N          1.79770        0.75021       -2.78727
C          1.23555        0.96784       -4.06475
C          1.01813        2.28601       -4.48368
C          0.45647        2.55544       -5.73329
C          0.06959        1.50323       -6.56094
C          0.22421        0.18977       -6.12203
Cl        -0.27620       -1.11038       -7.13333
C          0.78568       -0.08123       -4.87400
H          3.90640        0.50664        0.89287
H          4.23686       -1.71820        0.29228
H          5.69077       -2.65799       -1.47278
H          5.33707       -2.01069       -3.84135
H          3.55076       -0.45192       -4.45258
H          1.06099        0.79131       -2.06946
H          1.32092        3.11153       -3.84300
H          0.32688        3.58402       -6.05959
H         -0.35780        1.71247       -7.53771
H          0.88092       -1.10970       -4.53706
