42

C          0.40050       -0.91254       -0.08203
C         -0.40810       -0.52017       -1.07819
C         -1.62177        0.35217       -0.90492
N         -1.62055        1.47619       -1.84281
C         -2.04991        1.27174       -3.22479
C         -3.55222        1.29268       -3.32447
C         -4.25064        2.00607       -4.22033
C         -1.13537        2.72259       -1.44581
C          0.25550        2.98175       -1.33874
C          1.33161        1.98085       -1.65979
C          0.72621        4.23312       -0.88809
C         -0.15065        5.25926       -0.59215
O          0.24327        6.55310       -0.17805
C          1.51638        6.88452        0.28505
O          2.45990        6.12117        0.43988
N          1.66258        8.21093        0.58151
C          0.65045        9.23235        0.53563
C         -1.51437        5.05360       -0.74525
C         -2.01863        3.79391       -1.13882
C         -3.51651        3.68848       -1.24575
H          0.22194       -0.61685        0.94706
H          1.28766       -1.50552       -0.28545
H         -0.16259       -0.82825       -2.09114
H         -2.49899       -0.27872       -1.09288
H         -1.71274        0.70613        0.12875
H         -1.59852        2.01412       -3.89380
H         -1.71134        0.28955       -3.57531
H         -4.10220        0.70102       -2.59731
H         -5.33672        2.00167       -4.21019
H         -3.75878        2.63090       -4.95912
H          1.60300        1.42841       -0.75661
H          1.03664        1.30443       -2.46399
H          2.23890        2.48577       -2.01192
H          1.79813        4.37433       -0.79940
H          2.58985        8.44714        0.90901
H          0.55126        9.64897        1.54134
H          0.99192       10.01816       -0.14256
H         -0.31428        8.84690        0.20187
H         -2.19890        5.87481       -0.54689
H         -3.83240        3.93365       -2.26346
H         -3.87768        2.69885       -0.95624
H         -4.00910        4.40033       -0.57340
