23

Cl        -2.24224        2.07127        0.69702
C         -0.96393        1.00280        0.26867
C         -1.07456       -0.35465        0.55571
C         -0.03793       -1.21985        0.20032
Cl        -0.22247       -2.89928        0.56061
C          1.11417       -0.73132       -0.43212
O          2.07403       -1.63550       -0.82723
C          3.32539       -1.54587       -0.25712
C          4.38536       -1.96270       -1.06670
C          5.69590       -1.90392       -0.59350
C          5.94798       -1.44175        0.69675
C          4.88908       -1.05117        1.51770
C          3.57491       -1.11019        1.04627
C          1.19602        0.63423       -0.74365
Cl         2.52261        1.30696       -1.62301
C          0.16360        1.50226       -0.37820
H         -1.96654       -0.73896        1.04446
H          4.18959       -2.31974       -2.07429
H          6.51803       -2.21534       -1.23260
H          6.96967       -1.39061        1.06469
H          5.08904       -0.70167        2.52738
H          2.76735       -0.81744        1.70955
H          0.23134        2.56166       -0.61423
