14

N          0.86964       -0.14761        0.17836
C          0.40557       -0.43927       -1.10914
C          0.89487       -1.55596       -1.79608
C          0.34991       -1.92946       -3.02685
C         -0.71634       -1.20904       -3.54853
F         -1.24448       -1.56865       -4.72563
C         -1.25645       -0.13453       -2.85448
C         -0.70761        0.23451       -1.62408
H          0.70587        0.81198        0.46697
H          1.82756       -0.43956        0.34607
H          1.70620       -2.14495       -1.37670
H          0.73996       -2.78384       -3.56982
H         -2.10789        0.39844       -3.26424
H         -1.15681        1.05404       -1.06945
