21

C          1.74272        0.07322        0.00076
C          1.00105       -1.19695       -0.40589
C         -0.25013       -1.50996        0.40865
C         -1.49632       -0.80929       -0.13014
C         -1.56002        0.69267        0.12549
C         -0.36778        1.49382       -0.39441
C          0.89766        1.26987        0.42718
H          2.38425        0.37159       -0.83853
H          2.42864       -0.16409        0.82422
H          0.74796       -1.14664       -1.47228
H          1.70313       -2.03510       -0.30895
H         -0.09983       -1.28594        1.47077
H         -0.43027       -2.59054        0.34129
H         -2.37780       -1.26746        0.33604
H         -1.58990       -0.99907       -1.20665
H         -1.68447        0.87315        1.20048
H         -2.46911        1.07766       -0.35370
H         -0.63211        2.55632       -0.31777
H         -0.19201        1.29308       -1.45730
H          0.64201        1.17810        1.49015
H          1.52947        2.16418        0.35154
