20

C          0.99846        0.11322        0.11906
O          0.36351        0.01299        1.39047
C          0.88284       -0.94928        2.21904
C          2.21924       -1.35183        2.24743
C          2.63938       -2.34387        3.14899
C          4.07214       -2.78949        3.19181
C          1.70446       -2.93020        4.01544
C          0.37319       -2.51572        4.00373
C         -0.02095       -1.52377        3.11725
O         -1.32897       -1.12249        3.12914
H          0.37143        0.74661       -0.51590
H          1.08009       -0.86698       -0.36374
H          1.97777        0.59391        0.20331
H          2.95222       -0.89275        1.59193
H          4.46707       -2.69412        4.20862
H          4.15130       -3.83292        2.87091
H          4.70199       -2.18252        2.53323
H          2.01268       -3.70729        4.71138
H         -0.35005       -2.96017        4.68048
H         -1.37592       -0.40613        2.46682
