13

C          0.96121        0.07209        0.01476
C          0.45528        1.25957       -0.76842
O         -0.28733        1.09334       -1.74039
C          0.83126        2.65780       -0.30655
C          0.31036        2.96450        1.08644
Cl         2.60156        2.84761       -0.37084
H          0.61940       -0.84940       -0.46630
H          0.56361        0.09620        1.03159
H          2.05264        0.05911        0.03363
H          0.41214        3.37517       -1.02003
H          0.77425        2.32851        1.84797
H          0.50765        4.00757        1.35595
H         -0.77173        2.80241        1.13814
