17

C          0.93823        0.06629       -0.00512
C          0.48380       -0.36185        1.35656
C          0.57454       -1.71373        1.74318
C          0.17697       -2.15377        3.01035
C         -0.32528       -1.25427        3.95670
C         -0.41705        0.09794        3.60422
N         -0.85640        1.17970        4.32051
N         -0.74516        2.25551        3.55203
N         -0.24457        1.85456        2.37287
C         -0.01682        0.50616        2.33793
H          0.60971        1.08473       -0.23379
H          0.52367       -0.59635       -0.77176
H          2.03081        0.03571       -0.06089
H          0.96427       -2.44693        1.03717
H          0.26045       -3.20792        3.26548
H         -0.63399       -1.58693        4.94142
H         -0.08828        2.54630        1.65113
