15

N          0.93523        0.19451        0.18798
C          0.27071        1.34553        0.02859
N          0.56935        2.32636       -0.78438
C         -0.40317        3.26721       -0.57848
N         -0.49706        4.45056       -1.21260
C         -1.55270        5.17019       -0.80755
N         -2.47936        4.84289        0.12135
C         -2.36278        3.65132        0.74266
C         -1.30592        2.84784        0.38300
N         -0.85467        1.61602        0.76106
H          0.46535       -0.65304        0.48376
H          1.66083        0.01852       -0.50404
H         -1.68094        6.13715       -1.28486
H         -3.10597        3.39518        1.48588
H         -1.25071        1.01340        1.46497
