34

C          1.28533       -0.00163       -0.37125
C          0.60593       -0.41739        0.70535
C         -0.83523       -0.17877        0.92658
O         -1.32845       -0.20794        2.04351
O         -1.48846        0.00837       -0.24522
C         -2.90920        0.20625       -0.16470
C         -3.66408       -1.08046       -0.50662
C         -3.43894       -2.24071        0.46929
C         -4.03806       -2.02271        1.86445
C         -5.53548       -2.33307        1.96784
C         -5.89941       -3.81267        1.82395
O         -5.35002       -4.58683        2.90238
C         -4.21787       -5.28062        2.63510
O         -3.60860       -5.30864        1.57665
C         -3.72984       -5.99380        3.83334
C         -4.50400       -6.36282        4.86197
H          0.80815        0.54924       -1.17582
H          2.34932       -0.19558       -0.45876
H          1.10600       -0.93562        1.51609
H         -3.21376        0.62337        0.80056
H         -3.15494        0.96441       -0.91687
H         -4.73500       -0.86327       -0.58530
H         -3.33162       -1.41766       -1.49678
H         -3.85002       -3.14959        0.01862
H         -2.36396       -2.42629        0.56993
H         -3.48969       -2.63808        2.58608
H         -3.88156       -0.98823        2.18617
H         -5.87156       -1.99408        2.95616
H         -6.08847       -1.74903        1.22396
H         -6.98806       -3.91245        1.90021
H         -5.62342       -4.21569        0.84422
H         -2.67468       -6.24291        3.81038
H         -4.08084       -6.90260        5.70275
H         -5.56882       -6.15287        4.88546
