30

N          1.33800        0.24743        0.12070
S          0.67893        0.78259        1.57004
O          1.35517        2.02225        1.86449
O         -0.75291        0.67737        1.42548
C          1.19460       -0.43710        2.73985
C          1.43666       -0.05409        4.06242
C          1.75888       -1.02792        5.01012
C          1.85991       -2.37237        4.62413
S          2.15577       -3.58188        5.87530
O          3.59705       -3.74070        5.91893
O          1.43851       -3.12161        7.05194
C          1.45483       -5.15112        5.42615
C         -0.06392       -5.26801        5.52570
C         -0.86273       -4.64811        4.38902
O         -0.56725       -5.28268        3.15476
C          1.69476       -2.72337        3.29238
F          1.81945       -3.99049        2.88277
C          1.34056       -1.76797        2.34529
H          0.58581        0.06392       -0.54632
H          2.01517        0.93353       -0.21784
H          1.35154        0.98892        4.36475
H          1.92231       -0.73593        6.04747
H          1.85444       -5.48138        4.46705
H          1.87689       -5.84225        6.16881
H         -0.29742       -6.34094        5.53838
H         -0.41742       -4.85747        6.47737
H         -1.93098       -4.79783        4.57668
H         -0.70667       -3.57139        4.30053
H          0.31498       -5.00696        2.85098
H          1.16279       -2.07753        1.31958
