21

C          1.59948       -0.91451       -0.02131
N          0.31421       -1.39808        0.43823
C         -0.24254       -1.10441        1.63797
O         -0.83271       -1.99268        2.25276
N         -0.09047        0.12022        2.19602
C         -0.00696        1.39701        1.60913
C          0.30822        2.47079        2.44987
C          0.38621        3.77067        1.94391
C          0.13009        4.00983        0.59608
C         -0.21324        2.95114       -0.24168
C         -0.28846        1.65039        0.26486
H          2.06633       -0.23399        0.69379
H          1.46494       -0.43065       -0.99150
H          2.25416       -1.78139       -0.15182
H          0.08973       -2.34768        0.16909
H         -0.27906        0.10569        3.19036
H          0.51319        2.30667        3.50473
H          0.64412        4.59551        2.60310
H          0.18550        5.02111        0.20134
H         -0.43701        3.13726       -1.28905
H         -0.60566        0.85521       -0.40283
