9

N          1.07282        0.02069       -0.06534
C          2.33379        0.02069       -0.06534
C          3.85379        0.02069       -0.06534
C          4.36763        1.41918       -0.19548
O          5.05948        2.00536        0.62155
O          4.04468        2.00731       -1.36326
H          4.21540       -0.40542        0.87612
H          4.24344       -0.58835       -0.88652
H          4.43849        2.90536       -1.31426
