44

C         -0.87671       -0.05871       -1.03960
O         -0.04335       -0.21419       -2.18979
C          0.59086        1.00323       -2.51600
N          2.49705        1.41267       -2.49806
C          3.02026        3.01693       -2.93432
C          4.46892        3.34631       -2.90999
N          1.82137        4.13942       -3.41032
C          0.14511        3.65758       -3.43416
N         -0.72376        4.38775       -4.20902
C         -0.40116        4.58782       -5.50420
O         -1.23820        5.01451       -6.28944
N          0.87238        4.29783       -5.97433
S          1.81259        2.94490       -5.68145
O          1.34312        2.03557       -6.70443
O          3.20354        3.35564       -5.69510
C          1.47830        2.00423       -3.89562
C          1.29151        2.66592       -1.97663
C          1.68467        1.56249       -0.63985
C          2.19720       -0.04202       -1.03166
C          2.32015       -0.65102       -2.66718
C          1.99066        0.29213       -4.10754
C          2.33589       -0.40376       -5.39239
C          3.83883       -0.47104       -5.66492
C          4.51095       -1.67269       -5.02953
F          3.77481       -2.79602       -5.18456
F          5.71256       -1.90153       -5.60836
F          4.74035       -1.50749       -3.71236
N         -0.51232        2.17285       -3.01245
H         -1.70353       -0.77010       -1.11022
H         -1.29183        0.94680       -0.91492
H         -0.31331       -0.32554       -0.13705
H          4.95555        2.96007       -3.80871
H          4.61367        4.42695       -2.85408
H          4.93481        2.87662       -2.03971
H         -1.70488        4.17111       -4.10609
H          0.87788        4.44245       -6.98478
H          1.12867        3.67814       -1.55018
H          1.66844        1.90966        0.38719
H          2.46550       -0.72171       -0.22478
H          2.62473       -1.69041       -2.78661
H          1.90477       -1.41121       -5.35363
H          1.82875        0.03593       -6.24240
H          3.98863       -0.54609       -6.74811
H          4.34245        0.44679       -5.33852
