30

C          1.15457       -0.18458        0.12908
C          0.31291       -0.69194       -0.78082
C         -1.16467       -0.44450       -0.77931
O         -1.55043        0.13132       -2.03075
C         -1.36571        1.46811       -2.16361
O         -0.97306        2.22083       -1.27979
C         -1.79526        1.94750       -3.53168
C         -1.23247        1.15002       -4.71153
C         -1.80636       -0.25684       -4.93421
C         -3.33312       -0.34919       -5.01034
C         -3.96320        0.38116       -6.19759
C         -3.55925       -0.20941       -7.54037
H          0.79966        0.45266        0.93441
H          2.22105       -0.37649        0.07387
H          0.70566       -1.30942       -1.58460
H         -1.68122       -1.40742       -0.69975
H         -1.50423        0.17214        0.06056
H         -2.88659        2.01235       -3.55481
H         -1.42063        2.97547       -3.62614
H         -1.39479        1.73617       -5.62459
H         -0.14479        1.05985       -4.59722
H         -1.36609       -0.66669       -5.85066
H         -1.45947       -0.92713       -4.14113
H         -3.61264       -1.40916       -5.06007
H         -3.77671        0.02930       -4.08251
H         -5.05392        0.31416       -6.10466
H         -3.71261        1.44700       -6.17259
H         -3.78015       -1.28111       -7.57891
H         -4.11109        0.27916       -8.34928
H         -2.49222       -0.06974       -7.73613
