16

O          3.12538        0.06020        0.00365
C          1.90149        0.08525        0.00364
C          1.06165        1.35015       -0.00249
C         -0.29917        0.78673        0.00121
C         -1.53372        1.40873       -0.00057
C         -2.67369        0.60045        0.00567
C         -2.55955       -0.80036        0.01322
C         -1.30288       -1.40938        0.01436
C         -0.19080       -0.59117        0.00833
O          1.10939       -1.06056        0.00946
H          1.25893        1.92906        0.90276
H          1.25814        1.91995       -0.91366
H         -1.62305        2.49052       -0.00624
H         -3.66079        1.05810        0.00494
H         -3.45766       -1.41387        0.01838
H         -1.20361       -2.48942        0.02015
