15

N          1.21343        0.08110        0.23847
C          2.37074        0.09743        0.14931
C          3.79906        0.11751        0.03175
C          4.48382        1.33405       -0.02099
C          5.87704        1.34864       -0.14517
C          6.59680        0.15661       -0.26255
N          7.99505        0.17649       -0.26774
C          5.91119       -1.05484       -0.13993
C          4.51810       -1.07930       -0.01598
H          3.94442        2.27674        0.04586
H          6.39684        2.30362       -0.15223
H          8.39418        1.02279       -0.66251
H          8.41835       -0.66103       -0.65597
H          6.45788       -1.99470       -0.14300
H          4.00568       -2.03665        0.05462
