30

C          0.93176        0.19542       -0.20803
C          0.26122        0.90775        0.70725
C         -1.23175        0.87597        0.88497
C         -1.62064        0.23869        2.19779
C         -2.06881        1.01109        3.26896
C         -2.37123        0.40127        4.48629
C         -2.23195       -0.98359        4.66347
O         -2.57640       -1.38096        5.92933
C         -2.75694       -2.75725        6.21477
C         -3.88317       -3.48666        5.49359
O         -3.89658       -4.67105        5.18446
O         -4.97454       -2.72351        5.27554
C         -1.77028       -1.77026        3.59552
O         -1.57139       -3.10599        3.81029
C         -1.35823       -3.94440        2.68168
C         -1.48009       -1.14877        2.37175
H          0.42423       -0.46861       -0.90049
H          2.01430        0.25336       -0.26956
H          0.81724        1.55077        1.38693
H         -1.61584        1.90207        0.83104
H         -1.71914        0.32987        0.06713
H         -2.17677        2.08864        3.17214
H         -2.71901        1.01289        5.31630
H         -1.81300       -3.30245        6.11088
H         -3.00860       -2.81765        7.28062
H         -5.59774       -3.32442        4.81941
H         -2.17767       -3.85522        1.96076
H         -0.39102       -3.73585        2.21342
H         -1.33648       -4.97947        3.03580
H         -1.10375       -1.72197        1.52967
