47

C          1.28976        0.17788       -1.25807
C          0.44998        0.66982       -0.08711
C          1.09554        1.81788        0.75379
C          2.31613        1.35116        1.54103
C          1.92581        0.20111        2.48866
C          0.59670        0.38782        3.28080
C         -0.18844       -0.94019        3.49944
C          0.62934       -2.05815        4.15949
C         -0.20144       -3.33780        4.20022
C         -1.50982       -3.11354        4.92109
O         -2.13135       -4.03239        5.44956
C         -2.10252       -1.75350        4.90517
C         -1.51528       -0.73912        4.24452
C         -2.25586        0.58554        4.13892
C         -1.38224        1.79268        3.78084
C         -0.44836        1.35771        2.65397
C          0.15287        2.45806        1.80361
C         -0.84691        3.28813        0.98760
C         -0.07798        3.76962       -0.24802
C          1.23382        3.02212       -0.14770
O          2.24175        3.31380       -0.78136
H          1.23594        0.87901       -2.09549
H          0.89989       -0.78471       -1.60732
H          2.33764        0.03106       -0.98708
H         -0.52767        0.97350       -0.47954
H          0.24477       -0.20368        0.53796
H          2.73677        2.18054        2.12624
H          3.12672        1.03143        0.87703
H          1.88770       -0.72397        1.90209
H          2.74556        0.04970        3.20420
H          0.89938        0.78064        4.26312
H         -0.46159       -1.30261        2.49624
H          1.55150       -2.25801        3.60429
H          0.91825       -1.76570        5.17683
H         -0.42846       -3.68301        3.18389
H          0.35578       -4.12531        4.71632
H         -3.06811       -1.65682        5.38935
H         -3.00652        0.47788        3.34324
H         -2.80449        0.80233        5.06284
H         -2.01970        2.63061        3.48068
H         -0.81600        2.12668        4.66023
H         -1.08055        0.78954        1.95787
H          0.71017        3.15668        2.44703
H         -1.22333        4.13817        1.56722
H         -1.72061        2.69646        0.68992
H          0.08069        4.84856       -0.24537
H         -0.59685        3.46139       -1.16235
