12

F          2.35469        1.37405       -0.00787
C          1.19602        0.70173       -0.00690
C         -0.00076        1.40934       -0.00774
C         -1.19633        0.69972       -0.00601
F         -2.35613        1.37008       -0.00649
C         -1.19516       -0.69474       -0.00364
F         -2.35382       -1.36705       -0.00149
C          0.00162       -1.40234       -0.00332
C          1.19719       -0.69272       -0.00487
F          2.35699       -1.36309       -0.00428
H         -0.00167        2.49313       -0.00957
H          0.00253       -2.48614       -0.00173
