19

S          1.19446        0.07555        0.12563
C          0.35442       -1.03119        1.31916
C         -1.13021       -0.66839        1.44491
C         -1.96587       -1.09067        0.23548
C         -1.77252       -2.56730       -0.09561
C         -0.30007       -2.92053       -0.28146
C          0.53793       -2.50258        0.92764
H          2.43312       -0.40065        0.31924
H          0.84260       -0.85920        2.28507
H         -1.53330       -1.17649        2.33133
H         -1.25759        0.40551        1.62882
H         -1.70186       -0.48143       -0.63676
H         -3.02544       -0.89904        0.44088
H         -2.32934       -2.81706       -1.00582
H         -2.19331       -3.17860        0.71234
H          0.08128       -2.43896       -1.18940
H         -0.20137       -4.00123       -0.43619
H          1.59498       -2.73161        0.74495
H          0.23758       -3.12449        1.78167
