51

C          1.28737       -0.35238        0.26868
C          1.28762       -0.05236        1.75856
O          1.49174        1.34039        2.02997
C          2.65537        1.89864        1.61993
O          3.62809        1.29683        1.18530
C          2.58563        3.39406        1.74760
C          2.07337        4.04885        0.46214
N          0.61789        4.03759        0.16230
C          0.33135        4.94851       -0.96539
C          0.84879        4.42198       -2.28541
C          0.55554        3.10743       -2.68122
C          1.05463        2.60045       -3.87828
C          1.83701        3.40691       -4.70117
C          2.11537        4.72225       -4.33067
C          1.62110        5.23137       -3.12890
S         -0.54579        3.64472        1.27573
N         -2.00549        3.32798        0.42757
C         -2.99895        4.38336        0.49502
C         -2.40212        2.00144        0.18440
O         -1.66163        1.02425        0.23227
O         -3.76105        1.92992       -0.08838
N         -4.21565        0.59802       -0.13864
C         -5.50471        0.51706       -0.00835
C         -6.44294        1.68311        0.17581
S         -6.18639       -1.10945       -0.03354
C         -7.96852       -0.84970       -0.02948
H          0.83498        0.46184       -0.30495
H          0.75027       -1.28236        0.06336
H          2.30998       -0.47468       -0.10132
H          0.30154       -0.29415        2.16938
H          2.02472       -0.65402        2.30056
H          2.02012        3.68669        2.63790
H          3.61193        3.73693        1.93680
H          2.41133        5.09330        0.50124
H          2.59987        3.58084       -0.38023
H         -0.74470        5.10966       -1.10113
H          0.73943        5.94648       -0.75296
H         -0.04059        2.46177       -2.03731
H          0.84070        1.57233       -4.15753
H          2.23400        3.00661       -5.62977
H          2.72625        5.34821       -4.97558
H          1.85534        6.25630       -2.85133
H         -3.61847        4.36126       -0.40696
H         -3.63630        4.21175        1.36823
H         -2.52842        5.36834        0.56511
H         -7.10353        1.76674       -0.69174
H         -7.04166        1.54541        1.08052
H         -5.91531        2.63278        0.28205
H         -8.29655       -0.36148        0.89201
H         -8.28296       -0.25937       -0.89386
H         -8.47017       -1.82042       -0.08614
