23

C          0.92983        0.10615        0.02022
C          0.68519        0.22310        1.51543
O          1.20671        1.44244        2.06849
C          2.55503        1.50064        2.18674
O          3.36377        0.68301        1.78094
C          2.95086        2.73711        2.89397
C          4.10841        3.40033        2.48475
C          4.56345        4.51127        3.20181
C          3.89262        4.97393        4.34456
N          4.48018        6.07706        4.99898
C          3.95295        6.50114        5.95801
S          3.28701        7.12891        7.26277
C          2.72246        4.29720        4.73552
C          2.24978        3.19132        4.01422
H          0.55899        0.99043       -0.50655
H          0.43123       -0.78210       -0.37949
H          1.99635        0.02175       -0.20809
H         -0.39446        0.23444        1.69980
H          1.09442       -0.63731        2.05726
H          4.66607        3.04994        1.61869
H          5.47088        5.01645        2.87495
H          2.16116        4.59845        5.61625
H          1.35628        2.67259        4.35430
