24

C          0.78662        0.19510        0.14294
O          0.23357        1.15240        1.04866
C          0.94320        1.30391        2.19342
O          1.96504        0.70585        2.49168
C          0.33004        2.35168        3.05021
C          1.12667        2.93244        4.04662
C          0.60128        3.91609        4.88330
C         -0.72750        4.31433        4.73663
C         -1.54056        3.73240        3.75260
C         -2.95777        4.18097        3.66864
O         -3.43633        5.03459        4.39892
O         -3.62105        3.50552        2.69797
C         -5.00029        3.86199        2.58643
C         -1.00635        2.75177        2.90357
H          0.29320        0.31976       -0.82489
H          0.58989       -0.81688        0.50886
H          1.86092        0.35236       -0.00001
H          2.16268        2.62033        4.17114
H          1.22420        4.36808        5.65181
H         -1.13104        5.07856        5.39977
H         -5.53823        3.58515        3.49867
H         -5.10940        4.93179        2.38153
H         -5.42834        3.30438        1.74894
H         -1.62851        2.29112        2.14025
