21

Cl         1.07963        0.21238       -0.05747
C          2.79862        0.01388       -0.05727
C          3.57302        1.18093       -0.05718
C          4.95480        1.01040       -0.05667
O          5.86833        2.01645       -0.05607
C          7.10863        1.44510       -0.05524
C          8.33059        2.12634       -0.05390
Cl         8.34037        3.85080       -0.05318
C          9.49929        1.34415       -0.05299
Cl        11.05594        2.11899       -0.05077
C          9.40985       -0.05892       -0.05372
Cl        10.81277       -1.07594       -0.05277
C          8.16569       -0.71260       -0.05515
C          6.99077        0.05877       -0.05575
C          5.59252       -0.22349       -0.05651
C          4.80021       -1.38660       -0.05681
C          3.40097       -1.25353       -0.05707
Cl         2.47350       -2.71397       -0.05694
H          3.13151        2.17088       -0.05727
H          8.11051       -1.79841       -0.05561
H          5.26269       -2.36976       -0.05660
