22

C          0.87353        0.05478        0.17697
C          0.57321       -0.13135       -1.30876
C          1.04525       -1.47864       -1.92506
C          0.52561       -2.69081       -1.12881
O         -0.89673       -2.68243       -1.02253
C          0.53866       -1.58827       -3.38027
O          0.96553       -0.49629       -4.19172
C          2.56636       -1.53654       -1.96493
O          3.34214       -0.63030       -1.70396
O          3.05732       -2.73695       -2.33328
H          0.35877       -0.68621        0.79424
H          0.53033        1.04296        0.50136
H          1.94494       -0.00689        0.38628
H         -0.50980       -0.02373       -1.45098
H          1.03602        0.70705       -1.84475
H          0.79703       -3.63135       -1.62189
H          0.95373       -2.73872       -0.12113
H         -1.14372       -2.07810       -0.30149
H          0.90475       -2.50397       -3.85798
H         -0.55625       -1.62108       -3.42077
H          0.40265        0.27019       -3.98725
H          4.02672       -2.58956       -2.37510
