31

C          0.99638        0.07312       -0.18351
C          0.76245        0.01827       -1.68592
C          1.07374       -1.34510       -2.23412
C          0.15299       -2.13748       -2.80424
C          0.41467       -3.53621       -3.29010
C         -0.14722       -4.60774       -2.34812
O         -1.58568       -4.59431       -2.33670
C         -2.15804       -3.90716       -1.31876
O         -1.60779       -3.31755       -0.40548
C         -3.61240       -3.89423       -1.52930
C         -4.24723       -2.67254       -1.77146
C         -5.63009       -2.64081       -1.94753
C         -6.37076       -3.82163       -1.86186
C         -5.73255       -5.03817       -1.60756
C         -4.34759       -5.07963       -1.44525
H          0.38023       -0.66516        0.34148
H          0.73956        1.06423        0.20393
H          2.04571       -0.12355        0.06114
H         -0.27712        0.29706       -1.89546
H          1.39912        0.75727       -2.18455
H          2.09692       -1.69587       -2.11883
H         -0.87010       -1.78048       -2.90237
H         -0.03940       -3.63935       -4.28276
H          1.49263       -3.69868       -3.40905
H          0.14677       -5.59471       -2.72248
H          0.26991       -4.51832       -1.33775
H         -3.66830       -1.75377       -1.82370
H         -6.13189       -1.69655       -2.14402
H         -7.45066       -3.79271       -1.98796
H         -6.31703       -5.95163       -1.53020
H         -3.85016       -6.02331       -1.23870
