29

C          2.51592       -0.13011       -0.00558
C          1.01980       -0.02244       -0.00633
C          0.23299       -1.13941       -0.30991
C         -1.16062       -1.05190       -0.27553
C         -1.78451        0.14994        0.06455
O         -3.16216        0.11236        0.10476
C         -3.84225        1.30122        0.01511
C         -3.84951        2.04351       -1.16562
C         -4.58572        3.22822       -1.23174
C         -5.32158        3.66907       -0.12317
C         -6.13616        4.92709       -0.19413
C         -5.33400        2.89228        1.04366
C         -4.59983        1.70752        1.11129
C         -1.00495        1.26059        0.39540
C          0.39019        1.17381        0.35777
H          2.85861       -0.57115        0.93559
H          2.85862       -0.75373       -0.83790
H          2.98295        0.85349       -0.12181
H          0.69994       -2.08652       -0.57029
H         -1.76212       -1.92635       -0.50951
H         -3.28764        1.70231       -2.03035
H         -4.58426        3.80245       -2.15539
H         -7.19438        4.68136       -0.32640
H         -6.01599        5.51285        0.72330
H         -5.81911        5.55980       -1.02964
H         -5.91982        3.20494        1.90509
H         -4.61480        1.10553        2.01518
H         -1.46129        2.19882        0.69754
H          0.98131        2.04776        0.62233
