20

C          1.11782       -0.02311       -0.06843
C          0.61877       -1.39228        0.27610
N          1.37535       -2.42887       -0.15570
C          0.92228       -3.67462        0.13806
C          1.59142       -4.81645       -0.24145
N          1.19190       -6.07751        0.02901
C          0.05311       -6.17062        0.72040
N         -0.69222       -5.14436        1.14155
C         -0.25935       -3.91711        0.84837
N         -0.99523       -2.87817        1.25346
C         -0.57243       -1.61759        0.96222
C         -1.45724       -0.51846        1.46604
H          1.08391        0.63982        0.80124
H          0.51647        0.40258       -0.87753
H          2.15939       -0.06584       -0.40454
H          2.51709       -4.73746       -0.80446
H         -0.29995       -7.16765        0.96216
H         -2.50114       -0.74435        1.22401
H         -1.36066       -0.43710        2.55321
H         -1.22618        0.45319        1.02276
