25

N          0.85023        0.45442       -0.09307
C          0.37458        0.12595       -1.45333
C          0.77576       -1.26264       -1.99486
C          0.47602       -2.56990       -1.28213
C         -0.26862       -2.70643       -0.10137
C         -0.51755       -3.96441        0.46722
C         -0.02121       -5.10230       -0.14885
O         -0.24553       -6.35444        0.35037
C          0.72272       -4.98955       -1.31531
O          1.20925       -6.10995       -1.92536
C          0.97369       -3.74525       -1.88050
C         -1.11286        0.42706       -1.63807
O         -1.58645        1.19659       -2.46253
O         -1.93624       -0.24450       -0.81079
H          0.41137       -0.16361        0.58421
H          1.85039        0.26471       -0.03827
H          0.87204        0.85655       -2.10691
H          0.34190       -1.35493       -3.00090
H          1.86705       -1.23672       -2.13045
H         -0.69670       -1.85099        0.40736
H         -1.10455       -4.02525        1.37832
H         -0.80436       -6.26730        1.14174
H          0.90142       -6.84700       -1.36096
H          1.55407       -3.69669       -2.79920
H         -2.82780        0.05299       -1.08954
