13

O          1.14885       -0.02539        0.12623
C          0.55310        0.55629       -1.03722
C          0.99750        2.01679       -1.15396
O          2.43417        2.05643       -1.11007
C          0.52907        2.68093       -2.44647
Cl        -1.23994        2.83441       -2.52692
H          1.98647       -0.42990       -0.16341
H          0.87005       -0.03086       -1.90620
H         -0.53249        0.47295       -0.93613
H          0.64584        2.58560       -0.28491
H          2.67130        1.76125       -0.21015
H          0.95687        3.68520       -2.53433
H          0.86454        2.11572       -3.32261
