34

C         -3.61059        0.40037       -0.16588
C         -3.50703       -0.93971       -0.52154
C         -2.24918       -1.53114       -0.65280
C         -1.07934       -0.79321       -0.39993
C          0.19274       -1.38734       -0.48732
C          1.36965       -0.69754       -0.11647
C          1.23921        0.65714        0.31284
C          2.34458        1.38711        0.79388
C          3.55207        0.71378        0.88553
C          3.68488       -0.58250        0.44410
C          4.96680       -1.05569        0.65244
C          5.34215       -2.32907        0.25406
C          4.34824       -3.10334       -0.36066
C          3.03329       -2.62136       -0.52616
C          2.66203       -1.32214       -0.09668
C          5.78641       -0.03040        1.35646
C          4.83798        1.20498        1.45445
C         -0.02329        1.27136        0.30669
C         -1.18614        0.55482       -0.01743
C         -2.45707        1.14829        0.07578
H         -4.58853        0.86328       -0.06212
H         -4.40403       -1.52996       -0.69034
H         -2.18891       -2.58144       -0.92585
H          0.25419       -2.42790       -0.79141
H          2.26335        2.41330        1.13175
H          6.34763       -2.70160        0.41120
H          4.59372       -4.10537       -0.70594
H          2.30481       -3.27470       -0.99890
H          6.05100       -0.39154        2.35689
H          6.69885        0.20528        0.80198
H          4.70811        1.52229        2.49418
H          5.22275        2.04188        0.86328
H         -0.11325        2.31065        0.61455
H         -2.55798        2.19133        0.36408
