22

C          0.86429       -0.00463       -0.04237
C          0.70427       -0.67236        1.31367
S          1.14789        0.41999        2.68840
C          2.89009        0.37655        2.81269
S          3.95966       -0.51999        1.89454
N          3.43585        1.16261        3.79370
C          2.80305        2.05438        4.78067
C          3.11712        1.54752        6.18335
C          3.32367        3.48648        4.65600
O          2.82720        4.47701        5.17102
O          4.50976        3.58427        4.01545
H          0.29675        0.93010       -0.10151
H          0.48486       -0.66924       -0.82630
H          1.90909        0.21265       -0.27923
H         -0.35532       -0.91943        1.44545
H          1.24597       -1.62105        1.36234
H          4.44950        1.20903        3.76363
H          1.72231        2.09339        4.63219
H          4.19775        1.55278        6.37102
H          2.64808        2.17888        6.94517
H          2.76174        0.52076        6.31865
H          4.73181        4.53754        4.08252
