35

C          1.23093       -0.03599        0.09067
N          0.69545       -0.59796        1.35257
C         -0.78693       -0.64465        1.40853
C         -1.50685       -1.47162        0.34273
C         -1.60418       -2.98712        0.55382
C         -2.07695       -3.45732        1.92653
C         -3.56620       -3.40034        2.10180
O         -4.30632       -4.35146        2.28633
O         -4.05235       -2.14574        2.09705
S          1.67883       -1.82231        2.00429
O          1.53238       -2.98670        1.15660
O          2.98867       -1.25071        2.23621
C          1.01528       -2.22249        3.59908
C          0.63583       -1.21047        4.48406
C          0.09047       -1.55486        5.72260
C         -0.05548       -2.89852        6.07749
C          0.34426       -3.90539        5.19871
C          0.88121       -3.56997        3.95666
H          0.69269        0.87788       -0.17865
H          1.13850       -0.75568       -0.72810
H          2.28458        0.23704        0.20186
H         -1.13101       -0.88921        2.41368
H         -1.11503        0.39745        1.27674
H         -2.53325       -1.08718        0.27867
H         -1.07517       -1.28646       -0.64719
H         -2.27802       -3.39020       -0.21361
H         -0.63136       -3.43521        0.34371
H         -1.78464       -4.50712        2.05272
H         -1.61861       -2.91498        2.75284
H         -5.01234       -2.27306        2.25464
H          0.75666       -0.16425        4.21435
H         -0.21738       -0.77735        6.41785
H         -0.47400       -3.16270        7.04623
H          0.23988       -4.95034        5.48191
H          1.19203       -4.35968        3.27534
