59

C         -0.15363        0.10192        0.03483
O          0.30205       -0.00016       -1.31228
C          0.78840        1.17899       -1.81370
C         -0.07303        2.25337       -2.02762
C          0.41382        3.42077       -2.61605
C          1.73801        3.49025       -3.08408
C          2.17305        4.81823       -3.61745
O          1.34778        5.46877       -4.26291
C          3.55612        5.38128       -3.30602
C          3.78473        5.86758       -1.87755
C          4.35731        5.04417       -0.84996
C          4.86892        3.63331       -1.07747
C          6.29429        3.24365       -0.60252
N          6.37166        2.39417        0.61033
C          7.56200        1.53818        0.55319
C          6.41246        3.17916        1.84477
C          4.43833        5.55241        0.45452
C          4.15150        6.87147        0.69483
C          3.69229        7.70034       -0.28940
C          3.45859        7.21555       -1.56400
O          2.87180        8.02699       -2.49454
C          3.84246        8.76767       -3.23352
O          3.53811        8.97571        0.16697
C          4.14915        8.86442        1.47067
O          4.32376        7.49872        1.88866
C          2.54306        2.33797       -3.03245
C          3.70165        2.23041       -3.95079
O          3.79766        2.82616       -5.01434
O          4.70134        1.44495       -3.52813
C          2.11236        1.22488       -2.27951
O          2.97478        0.17534       -2.07612
C          3.07839       -0.23982       -0.70967
H         -1.23179       -0.07427        0.06039
H          0.08228        1.05965        0.51174
H          0.33478       -0.69181        0.61004
H         -1.12242        2.18382       -1.75424
H         -0.25769        4.26943       -2.75055
H          4.35387        4.71583       -3.62679
H          3.69232        6.22306       -3.99801
H          4.12825        2.91607       -0.71093
H          4.93330        3.50477       -2.15339
H          6.69095        2.63356       -1.42898
H          6.96096        4.11340       -0.54901
H          8.48591        2.12168        0.47449
H          7.62518        0.90668        1.44765
H          7.50232        0.85033       -0.29711
H          6.89104        4.15637        1.71203
H          5.39671        3.30799        2.22721
H          6.95339        2.66919        2.65038
H          4.75170        4.94722        1.28513
H          4.83627        8.30378       -3.23328
H          3.49605        8.82033       -4.27071
H          3.91027        9.78557       -2.83978
H          5.14009        9.33783        1.43781
H          3.53669        9.38861        2.21097
H          5.32596        1.40578       -4.28128
H          2.73031        0.51127        0.01127
H          2.52405       -1.17418       -0.57829
H          4.12975       -0.44261       -0.48369
