22

Cl        -2.09598       -0.06733       -0.14047
C         -0.37765       -0.02961       -0.06696
C          0.33654       -1.21932        0.04827
C          1.73299       -1.18746        0.10848
C          2.43000        0.03154        0.05498
C          3.90162        0.05734        0.10346
C          4.62827       -0.48970       -0.97240
C          6.02565       -0.48898       -0.98079
C          6.72753        0.06011        0.08741
C          6.03235        0.60511        1.16555
C          4.63189        0.60309        1.17730
Cl         3.85393        1.27114        2.57286
C          1.68822        1.21854       -0.06849
C          0.29156        1.18965       -0.12536
H         -0.18336       -2.17224        0.09428
H          2.27841       -2.12457        0.20527
H          4.09958       -0.91786       -1.82296
H          6.56319       -0.91644       -1.82399
H          7.81473        0.06236        0.08312
H          6.58684        1.02791        1.99979
H          2.19831        2.17891       -0.11831
H         -0.26289        2.11996       -0.21396
