66

N          1.35582        0.02977        0.04351
C          0.60496       -0.54525       -0.81946
N          1.07972       -1.34346       -1.79624
N         -0.73723       -0.41924       -0.90305
C         -1.52104        0.30659        0.08199
C         -2.47247        1.27565       -0.62316
C         -3.51662        0.61680       -1.53357
C         -4.49149       -0.33295       -0.83266
C         -5.31381        0.29558        0.29511
C         -6.22534        1.45568       -0.12304
C         -7.32341        1.10237       -1.13792
C         -8.27326       -0.02657       -0.71413
N         -9.05395        0.32961        0.46955
C         -9.69844       -0.82205        1.10084
C         -8.74626       -1.75017        1.87268
C         -7.92430       -1.08174        2.98306
C         -8.73851       -0.49504        4.13834
C         -9.56169       -1.51313        4.93269
C         -8.75409       -2.63714        5.59287
C         -7.66317       -2.18574        6.57459
C         -8.13670       -1.26846        7.70478
N         -9.10153       -1.93470        8.56420
C         -8.81717       -2.57237        9.71871
N         -9.52610       -3.52495       10.20751
N         -7.74909       -2.13600       10.40745
H          2.32752       -0.23970       -0.10715
H          0.57936       -1.22149       -2.66895
H          2.07742       -1.27007       -1.94694
H         -1.20243       -1.24615       -1.25584
H         -2.06955       -0.40355        0.70974
H         -0.88192        0.88885        0.75553
H         -2.97495        1.89153        0.13123
H         -1.87962        1.96867       -1.23402
H         -4.08197        1.40706       -2.04116
H         -3.00627        0.06221       -2.33031
H         -5.16774       -0.75682       -1.58435
H         -3.93670       -1.18579       -0.42381
H         -5.91213       -0.49527        0.75790
H         -4.64201        0.64847        1.08619
H         -6.68600        1.87320        0.78002
H         -5.61806        2.26859       -0.53780
H         -7.90972        2.00728       -1.34370
H         -6.85692        0.82457       -2.09072
H         -8.96523       -0.22669       -1.54088
H         -7.69048       -0.93978       -0.56481
H         -8.48396        0.82323        1.15074
H        -10.46184       -0.44246        1.78923
H        -10.24456       -1.40305        0.34746
H         -9.33284       -2.57372        2.29594
H         -8.04938       -2.22392        1.17146
H         -7.20816       -1.81405        3.37319
H         -7.31194       -0.27908        2.55984
H         -8.05087        0.02463        4.81615
H         -9.41273        0.27972        3.75504
H        -10.13159       -0.97643        5.70012
H        -10.31452       -1.96461        4.27614
H         -9.45298       -3.30332        6.11271
H         -8.28705       -3.25530        4.81664
H         -7.19816       -3.08141        7.00590
H         -6.87115       -1.67071        6.01767
H         -7.26379       -0.92373        8.26985
H         -8.60015       -0.36505        7.29653
H         -9.89994       -2.30050        8.06179
H        -10.30481       -3.72840        9.58057
H         -7.72900       -1.12866       10.49271
H         -7.74431       -2.57013       11.32528
