19

C          0.97752       -0.11409       -0.02236
C          0.52816       -1.56212       -0.10101
N          0.94386       -2.28923        1.07996
C          0.14037       -2.88848        2.00288
O          0.60595       -3.41125        3.00712
O         -1.17527       -2.84122        1.68127
C         -2.07314       -3.42841        2.63378
C         -2.10670       -4.94048        2.49843
H          0.55106        0.38209        0.85582
H          0.66483        0.43486       -0.91561
H          2.06819       -0.04805        0.05567
H         -0.55678       -1.60804       -0.23018
H          0.99415       -2.05163       -0.96193
H          1.92928       -2.35322        1.29658
H         -1.81434       -3.11997        3.65324
H         -3.06804       -3.02423        2.41895
H         -1.14125       -5.38345        2.76176
H         -2.87024       -5.36919        3.15403
H         -2.32049       -5.23273        1.46544
