33

O          0.62654       -0.85475        2.75262
C          1.80394       -0.65737        2.48479
O          2.61696       -1.67083        2.09922
C          2.46017        0.71825        2.48502
O          1.79314        1.45618        1.46852
C          2.53747        2.39348        0.80645
C          3.13026        3.46272        1.48194
C          3.65907        4.52765        0.75215
C          3.54602        4.54222       -0.63938
C          2.94527        3.48052       -1.32825
O          2.87094        3.70072       -2.67899
C          2.09628        2.83231       -3.49808
C          2.81239        1.55848       -3.92111
O          2.28429        0.51130       -4.25855
O          4.15793        1.66149       -3.89222
C          2.50271        2.36527       -0.60152
O          1.98195        1.30035       -1.28479
C          2.50599        0.01826       -0.97756
C          3.97499       -0.18842       -0.60048
O          4.37608       -0.67682        0.45061
O          4.84799        0.19392       -1.55187
H          3.49310       -1.38551        1.74678
H          2.29833        1.17067        3.46804
H          3.53720        0.64011        2.31358
H          3.13405        3.51255        2.56685
H          4.10853        5.37753        1.26152
H          3.90707        5.40387       -1.19889
H          1.12702        2.60315       -3.04017
H          1.87459        3.37808       -4.42131
H          4.47419        0.73936       -3.97671
H          1.88026       -0.44373       -0.21023
H          2.34522       -0.60993       -1.86115
H          5.73753        0.06197       -1.15980
