36

O          2.20995        1.25666       -0.13123
C          1.45667        0.30317       -0.09780
O          1.80700       -1.01069       -0.00776
C          0.65382       -1.90887       -0.02708
C          0.78074       -2.72859       -1.32894
C         -0.27641       -2.88239       -2.24528
C         -0.17667       -3.76277       -3.32592
C          0.98425       -4.50311       -3.52015
C          2.06429       -4.33267       -2.65971
C          1.97121       -3.44243       -1.58658
C          0.67983       -2.75884        1.26366
C          0.54467       -4.16118        1.24822
C          0.54137       -4.90549        2.43045
C          0.63957       -4.26346        3.65944
C          0.75842       -2.87819        3.70716
C          0.79010       -2.13480        2.52392
C         -0.48706       -0.93062       -0.00083
C         -1.85484       -1.14324        0.13155
C         -2.70811       -0.03642        0.13286
C         -2.19144        1.26516        0.03046
C         -0.81464        1.47270       -0.06553
C          0.00465        0.35570       -0.07853
H         -1.20963       -2.33820       -2.13659
H         -1.01671       -3.87973       -4.00638
H          1.04682       -5.21021       -4.34296
H          2.97478       -4.90697       -2.81086
H          2.82225       -3.34336       -0.91276
H          0.44330       -4.71009        0.31443
H          0.45667       -5.98842        2.38590
H          0.62205       -4.84260        4.57857
H          0.82613       -2.37241        4.66698
H          0.88863       -1.05337        2.59975
H         -2.25698       -2.14842        0.22939
H         -3.78258       -0.18448        0.22101
H         -2.86940        2.11591        0.04084
H         -0.39659        2.47343       -0.11583
