28

C          1.02330        0.00447        0.27430
C          0.66036        1.47944        0.19191
C          1.13244        2.14935       -1.10130
C          0.52882        1.58357       -2.39167
C         -0.99739        1.67662       -2.49806
C         -1.57390        3.09738       -2.41275
C         -1.10945        4.04197       -3.53215
O         -1.55631        3.54449       -4.79336
C         -1.66259        5.46246       -3.34957
O         -1.15038        6.08192       -2.17536
H          0.49624       -0.58199       -0.48385
H          0.74711       -0.39709        1.25452
H          2.09972       -0.14264        0.13993
H         -0.42142        1.59875        0.31471
H          1.12632        1.99816        1.03854
H          0.92289        3.22351       -1.03783
H          2.22438        2.06094       -1.16481
H          0.98562        2.10002       -3.24389
H          0.82123        0.53248       -2.49969
H         -1.30902        1.21292       -3.44170
H         -1.45400        1.06853       -1.70815
H         -2.66696        3.00622       -2.46285
H         -1.34047        3.52301       -1.43131
H         -0.01607        4.10234       -3.54903
H         -1.01670        2.76528       -5.00904
H         -1.37785        6.08143       -4.20767
H         -2.75795        5.46549       -3.31295
H         -1.66911        5.75185       -1.42194
