37

C          0.27557       -0.06605       -0.80973
C         -0.48898       -1.21289       -0.15806
C         -0.41142       -1.34830        1.36840
S         -0.32096        0.21192        2.26490
P          1.66632        0.42864        2.96303
S          2.03812       -0.26339        4.75731
O          2.69073       -0.03073        1.79343
C          3.04900       -1.32544        1.36521
C          3.44150       -2.30754        2.44524
O          1.92010        2.04642        2.89103
C          3.10390        2.65600        3.21239
C          3.03135        3.88975        3.85558
C          4.20571        4.53296        4.26920
C          5.46020        3.95691        4.03459
S          6.91701        4.79282        4.64328
C          8.11011        3.42761        4.77474
C          5.51769        2.75734        3.32526
C          4.34907        2.11335        2.91947
H         -0.10641        0.90948       -0.49371
H          0.15971       -0.11486       -1.89738
H          1.34459       -0.10811       -0.59195
H         -1.54373       -1.11487       -0.44287
H         -0.14731       -2.15712       -0.60097
H         -1.30229       -1.88570        1.71290
H          0.42830       -1.97877        1.66432
H          2.27333       -1.74446        0.72510
H          3.91925       -1.18777        0.71306
H          2.57425       -2.60105        3.04179
H          3.84978       -3.21890        1.99793
H          4.19700       -1.88120        3.11160
H          2.06657        4.34440        4.06320
H          4.12798        5.48309        4.79456
H          7.67940        2.57794        5.31318
H          8.43648        3.10690        3.78122
H          8.99075        3.77023        5.32368
H          6.46190        2.28921        3.07120
H          4.46659        1.18671        2.37321
