22

Cl         3.72060        2.14262        0.40072
C          3.36053        0.41547        0.35790
Cl         4.19201       -0.37942       -0.97998
C          1.89771        0.11220        0.41329
Cl         1.00058        0.74335       -1.03908
C          1.62643       -1.37542        0.77686
Cl         1.21403       -2.55163       -0.47606
C          0.55752       -0.91491        1.80852
Cl        -1.16442       -0.94453        1.27709
C          0.80186       -1.60001        3.13470
Cl         0.44010       -3.32984        3.09294
Cl        -0.03552       -0.81284        4.47838
C          2.28582       -1.30789        3.11582
Cl         3.17148       -1.93048        4.55678
C          2.87053       -1.65816        1.71785
Cl         3.80426       -3.14014        1.48283
C          3.56281       -0.26619        1.67293
Cl         5.30036       -0.23371        2.21371
C          2.52004        0.19646        2.72863
Cl         2.95016        1.38126        3.96692
C          1.28526        0.47720        1.79447
Cl         0.36390        1.96943        2.01004
