22

O          1.28751       -0.47892        0.17814
C          0.49096       -1.04003       -0.85840
C          0.95863       -0.60075       -2.22766
C          1.47380       -1.57843       -3.09718
C          1.91383       -1.23750       -4.37173
C          1.85184        0.08678       -4.79492
C          1.34898        1.08903       -3.95331
C          1.30061        2.42120       -4.39613
C          0.80623        3.43342       -3.57581
C          0.34928        3.12506       -2.30173
C          0.38812        1.80451       -1.84804
C          0.88950        0.75596       -2.65304
H          2.06136       -0.06137       -0.23855
H          0.54714       -2.12893       -0.75476
H         -0.55581       -0.75888       -0.70241
H          1.53225       -2.61926       -2.78418
H          2.30509       -2.00303       -5.03680
H          2.20189        0.33275       -5.79548
H          1.65234        2.68251       -5.39221
H          0.77811        4.45931       -3.93289
H         -0.03816        3.90889       -1.65609
H          0.02038        1.60601       -0.84301
