26

N          2.09407       -0.00299        0.26556
C          0.77124       -0.20169        0.14701
N          0.21946       -1.38810        0.19167
C         -1.14620       -1.28305       -0.00857
C         -2.00264       -2.45682       -0.01523
C         -1.85426       -3.42666        0.98003
C         -2.68203       -4.55225        0.99805
C         -3.66075       -4.73826        0.00981
C         -4.49981       -5.86396        0.01182
C         -5.45847       -6.04170       -0.98699
C         -5.58929       -5.09789       -2.00152
C         -4.76676       -3.97058       -2.01518
C         -3.80121       -3.77342       -1.01480
C         -2.97088       -2.63982       -1.01208
C         -1.61723        0.00476       -0.17175
S         -0.30901        1.10914       -0.10492
H          2.47801        0.84745       -0.12659
H          2.66717       -0.82567        0.11515
H         -1.09599       -3.30520        1.75120
H         -2.55197       -5.28623        1.79038
H         -4.41025       -6.61470        0.79407
H         -6.10013       -6.91879       -0.97374
H         -6.33128       -5.23826       -2.78314
H         -4.88408       -3.24526       -2.81749
H         -3.07050       -1.90331       -1.80682
H         -2.63293        0.34440       -0.31325
