17

C          1.18472        0.90074        0.13129
C          0.35707        0.99252       -0.91565
C         -1.08046        0.60195       -0.94624
O         -1.71292        0.81203       -1.98174
C         -1.73596       -0.06494        0.24732
C         -1.75318       -1.58556        0.11799
C         -0.40682       -2.22914        0.41443
H          0.88416        0.52662        1.10256
H          2.22230        1.20619        0.02875
H          0.72275        1.37812       -1.86397
H         -1.28820        0.26084        1.18980
H         -2.77030        0.30247        0.27556
H         -2.48887       -1.98772        0.82429
H         -2.07799       -1.88036       -0.88681
H         -0.03228       -1.92505        1.39706
H         -0.50173       -3.31957        0.41328
H          0.33812       -1.96247       -0.34072
