112

C          1.16917        0.30795        0.46324
C          0.93754        0.97150       -0.88547
C          1.38841        0.09941       -2.05987
C          0.66571       -1.24812       -2.16116
C         -0.85439       -1.12917       -2.31046
C         -1.28948       -0.41191       -3.59243
C         -0.86565       -1.14104       -4.87193
C         -1.46312       -2.54683       -4.99476
C         -2.99446       -2.54635       -5.04755
C         -3.55480       -1.79052       -6.25798
C         -3.10899       -2.37896       -7.60140
C         -3.55264       -3.82895       -7.79421
C         -5.07218       -3.97484       -7.86208
C         -5.71744       -3.33529       -9.09793
C         -5.20351       -3.86131      -10.44181
C         -5.82720       -5.19012      -10.78559
O         -6.60275       -5.36238      -11.70953
O         -5.46888       -6.13962       -9.87732
C         -6.36700       -7.24904       -9.80686
C         -6.49303       -7.67863       -8.33697
C         -5.70144       -8.96918       -8.24467
C         -4.25744       -8.64930       -7.81082
O         -3.93296       -8.18947       -6.72530
O         -3.31443       -8.90929       -8.73667
N         -5.84321       -9.53691       -9.58059
C         -6.02835      -10.84060       -9.96967
O         -5.92746      -11.17959      -11.15060
C         -6.49627      -11.85482       -8.94093
C         -5.39368      -12.68502       -8.29411
C         -4.68018      -12.02899       -7.11732
C         -5.61588      -11.67164       -5.95500
C         -5.39271      -12.54516       -4.72799
C         -4.04303      -12.29463       -4.05156
C         -3.83515      -10.84897       -3.58061
C         -4.90915      -10.35428       -2.60521
C         -5.07752      -11.25444       -1.37640
C         -3.77529      -11.47675       -0.60035
C         -3.19421      -10.18978       -0.01011
C         -4.08361       -9.55721        1.06360
C         -4.33227      -10.45932        2.27763
C         -3.06068      -10.91600        2.99723
C         -2.25137       -9.75382        3.55084
C         -5.83630       -8.46896      -10.56387
H          0.57167       -0.60199        0.57414
H          0.88611        0.98694        1.27264
H          2.22403        0.04465        0.58904
H         -0.12053        1.23753       -0.98643
H          1.49333        1.91549       -0.91653
H          1.25558        0.66362       -2.99062
H          2.46559       -0.08754       -1.97618
H          1.08402       -1.80913       -3.00471
H          0.88784       -1.85649       -1.27772
H         -1.29231       -2.13288       -2.27261
H         -1.27958       -0.60508       -1.44802
H         -2.37778       -0.28500       -3.57444
H         -0.88664        0.60625       -3.61285
H         -1.15010       -0.53237       -5.73737
H          0.22584       -1.21192       -4.92467
H         -1.05178       -3.03191       -5.88670
H         -1.13486       -3.17522       -4.16004
H         -3.35151       -3.58193       -5.04440
H         -3.40779       -2.10879       -4.13255
H         -4.64780       -1.77696       -6.19160
H         -3.25901       -0.73686       -6.21789
H         -3.49639       -1.75346       -8.41242
H         -2.01901       -2.32589       -7.69520
H         -3.08291       -4.23638       -8.69439
H         -3.17306       -4.45729       -6.98083
H         -5.30992       -5.03506       -7.81547
H         -5.54020       -3.55602       -6.96454
H         -6.80195       -3.49175       -9.03488
H         -5.56643       -2.25069       -9.06062
H         -5.50414       -3.15745      -11.22715
H         -4.11558       -3.93667      -10.50268
H         -7.36756       -6.96963      -10.15731
H         -7.54533       -7.89421       -8.11715
H         -6.15706       -6.92678       -7.61946
H         -6.13341       -9.62800       -7.49757
H         -2.46610       -8.66034       -8.31399
H         -7.16921      -11.38000       -8.22340
H         -7.14453      -12.55039       -9.49289
H         -5.83275      -13.62357       -7.93204
H         -4.64585      -12.95862       -9.04750
H         -3.88654      -12.70723       -6.78755
H         -4.15815      -11.13868       -7.46605
H         -5.47604      -10.62048       -5.68302
H         -6.66887      -11.75898       -6.23682
H         -6.20740      -12.36278       -4.01734
H         -5.47206      -13.60053       -5.01221
H         -3.95137      -12.98441       -3.20555
H         -3.22389      -12.55861       -4.72812
H         -2.84540      -10.77129       -3.11623
H         -3.79176      -10.16903       -4.43854
H         -4.66170       -9.33316       -2.29267
H         -5.87396      -10.27043       -3.11910
H         -5.84606      -10.82738       -0.72323
H         -5.47418      -12.22922       -1.68231
H         -3.95238      -12.21602        0.18752
H         -3.02071      -11.93646       -1.24789
H         -2.20217      -10.40515        0.40143
H         -3.01859       -9.45426       -0.80320
H         -3.62903       -8.61469        1.38777
H         -5.05026       -9.27599        0.63013
H         -4.97496       -9.92309        2.98562
H         -4.90252      -11.34464        1.97211
H         -3.34392      -11.57760        3.82366
H         -2.43193      -11.51561        2.32943
H         -2.86027       -9.14655        4.22776
H         -1.38648      -10.12583        4.10745
H         -1.87536       -9.10700        2.75235
H         -6.47893       -8.72408      -11.41154
H         -4.81269       -8.32781      -10.92662
