33

C          1.16553       -0.00248       -0.01155
C          0.51625        1.34385        0.31170
C          0.96013        2.39253       -0.71111
C         -1.02189        1.25445        0.33894
C         -1.60928        0.34652        1.42817
C         -1.21666        0.70857        2.86786
C         -1.62083        2.12658        3.32511
C         -3.14729        2.27312        3.37575
C         -1.03774        2.46651        4.71588
C          0.48547        2.56985        4.77507
O          0.96599        3.58618        3.90753
H          0.80847       -0.39521       -0.96966
H          0.95113       -0.74502        0.76283
H          2.25467        0.09687       -0.07336
H          0.88136        1.67445        1.28997
H          0.62871        2.13046       -1.72138
H          0.54777        3.37598       -0.46135
H          2.05149        2.48474       -0.72452
H         -1.44291        2.26098        0.44921
H         -1.37691        0.89050       -0.63434
H         -2.70124        0.35028        1.33280
H         -1.30642       -0.69000        1.23779
H         -1.67536       -0.02727        3.54152
H         -0.13661        0.56885        2.97187
H         -1.24471        2.86541        2.60975
H         -3.59437        1.53354        4.04885
H         -3.43113        3.26880        3.73363
H         -3.59463        2.14844        2.38529
H         -1.44713        3.43577        5.02961
H         -1.37353        1.72395        5.44991
H          0.79039        2.83832        5.79173
H          0.97987        1.62651        4.52782
H          0.86350        3.26922        2.99432
