16

C          1.03496       -0.00878       -0.02195
C          0.44251       -1.41461       -0.14446
O          0.97592       -2.16562        0.95985
C         -1.07968       -1.41397       -0.05960
N         -1.66953       -0.56888       -1.12621
O         -1.41591       -0.83522       -2.30876
O         -2.32216        0.41635       -0.75231
N         -1.65955       -2.76269       -0.30599
O         -2.73422       -3.01397        0.26067
O         -1.05312       -3.55506       -1.04158
H          0.69514        0.47703        0.89994
H          0.76789        0.62575       -0.87172
H          2.12802       -0.05722        0.03628
H          0.81063       -1.87439       -1.06965
H          1.92556       -2.31721        0.79006
H         -1.44257       -1.07764        0.91815
