36

N          1.04425       -0.47374       -0.40087
C          0.61211       -0.08553        0.93406
C          1.14421        1.28623        1.35449
C          0.61588        2.48176        0.55028
C         -0.87741        2.78879        0.72319
C         -1.29031        3.26831        2.12365
N         -0.81234        4.63419        2.37474
C          0.25197        4.88913        3.03149
O          1.08546        4.00244        3.59879
C          0.75685        6.23008        3.32940
C          1.90106        6.70377        2.68166
C          2.43553        7.93823        3.05129
C          1.83109        8.68484        4.06546
C          0.68064        8.21050        4.70030
C          0.13475        6.98194        4.32844
C         -2.81714        3.26856        2.22144
O         -3.47467        2.56440        2.97063
O         -3.43426        4.11624        1.37287
H          0.67055        0.17101       -1.09502
H          2.05942       -0.40562       -0.46859
H         -0.48023       -0.11558        0.98982
H          0.98153       -0.83546        1.64286
H          0.92307        1.41696        2.41673
H          2.23946        1.28123        1.27829
H          1.19881        3.36993        0.81945
H          0.81263        2.31681       -0.51559
H         -1.14558        3.56001       -0.01184
H         -1.46346        1.90336        0.44810
H         -0.96223        2.56233        2.89163
H          0.76397        3.09749        3.53770
H          2.38011        6.11010        1.90843
H          3.33075        8.31250        2.56121
H          2.26153        9.63701        4.36666
H          0.21887        8.79200        5.49414
H         -0.74953        6.60105        4.83165
H         -4.38416        4.01942        1.58555
