46

C          0.83880        0.27776        0.13076
C          0.28388        0.55916       -1.25748
C          0.77036       -0.44237       -2.31018
C          0.28937       -1.88581       -2.09814
O         -1.13115       -1.93852       -2.24897
C          0.88281       -2.86424       -3.12269
C          2.41694       -2.97372       -3.12605
C          3.07868       -3.42068       -1.77989
C          2.71082       -4.91373       -1.50122
C          2.78029       -5.31912       -0.02431
C          3.51256       -5.88164       -2.38633
C          5.01508       -5.61707       -2.38764
C          5.35951       -4.15713       -2.68010
C          4.63486       -3.15198       -1.75782
C          4.97436       -1.71518       -2.22787
C          5.20473       -3.24404       -0.32100
H          0.43331       -0.65005        0.54409
H          0.57221        1.09005        0.81418
H          1.93069        0.19848        0.10923
H         -0.81013        0.58700       -1.22195
H          0.61121        1.56068       -1.56277
H          0.41760       -0.09166       -3.28861
H          1.86397       -0.40025       -2.32792
H          0.51809       -2.23811       -1.08872
H         -1.52681       -1.45943       -1.50277
H          0.42584       -3.85069       -2.98361
H          0.55952       -2.55859       -4.12759
H          2.70478       -3.66230       -3.92856
H          2.79461       -2.00000       -3.44149
H          2.64094       -2.80332       -0.98610
H          1.65527       -5.05675       -1.75832
H          2.40986       -4.52202        0.62766
H          2.14794       -6.19878        0.14594
H          3.78216       -5.60507        0.29829
H          3.14614       -5.81073       -3.41781
H          3.32675       -6.91740       -2.07644
H          5.48781       -6.25241       -3.14645
H          5.44739       -5.92234       -1.42904
H          5.10562       -3.94517       -3.72692
H          6.44615       -4.02532       -2.60057
H          4.37796       -0.97431       -1.68319
H          6.03124       -1.47889       -2.05530
H          4.80937       -1.57509       -3.30026
H          5.28472       -4.26468        0.04953
H          6.22278       -2.83856       -0.27251
H          4.59247       -2.67096        0.38406
