33

C          1.36330       -0.38876        0.02431
C          1.03578        0.92086       -0.31481
C         -0.29674        1.26960       -0.52938
C         -1.32149        0.32059       -0.38604
C         -2.76208        0.73404       -0.59649
C         -3.45021        1.36817        0.63049
N         -2.68719        2.48041        1.20292
C         -3.29755        3.07396        2.39013
C         -3.10273        2.35215        3.71034
C         -2.53498        1.07534        3.84329
C         -2.44863        0.45384        5.09220
C         -2.90028        1.10750        6.23348
C         -3.43450        2.38901        6.12962
C         -3.53790        3.00178        4.87884
C         -0.98117       -0.99291       -0.04122
C          0.35715       -1.34568        0.15549
H          2.40269       -0.66353        0.18301
H          1.81465        1.67213       -0.41416
H         -0.54098        2.29696       -0.79527
H         -2.80819        1.42883       -1.44485
H         -3.34454       -0.14419       -0.90556
H         -4.43474        1.73205        0.31146
H         -3.63039        0.58283        1.37068
H         -1.74066        2.18127        1.43632
H         -2.84415        4.06773        2.49991
H         -4.36905        3.23881        2.22184
H         -2.15279        0.53374        2.98374
H         -2.02675       -0.54570        5.16813
H         -2.83233        0.62167        7.20275
H         -3.77535        2.90957        7.01980
H         -3.96468        4.00201        4.81876
H         -1.75062       -1.75340        0.06747
H          0.61770       -2.36979        0.41024
