15

C         -3.31428       -1.73843        0.00072
C         -2.34245       -0.59568        0.00028
C         -2.79011        0.73144        0.00173
C         -1.87602        1.78745        0.00159
C         -0.50607        1.52697       -0.00044
C         -0.05641        0.20841       -0.00285
Br         1.80054       -0.14848       -0.00599
C         -0.96434       -0.85098       -0.00277
H         -3.17831       -2.34919       -0.89754
H         -3.16215       -2.36220        0.88742
H         -4.35047       -1.38480        0.01323
H         -3.85530        0.95318        0.00327
H         -2.23339        2.81412        0.00319
H          0.19827        2.35420       -0.00018
H         -0.60443       -1.87712       -0.00480
