27

C          0.96695       -0.01825       -0.12522
C          0.45547        0.61375        1.15444
C          0.78142        2.08418        1.21483
O         -0.06399        2.96671        1.20077
O          2.12628        2.25882        1.31208
C          2.65581        3.60230        1.43843
C          2.33151        4.42982        0.18945
C          2.35800        4.23892        2.79050
C          2.38202        5.63143        2.97099
C          2.15153        6.19880        4.22789
C          1.89793        5.38493        5.32799
C          1.88902        4.00234        5.17586
C          2.13111        3.43522        3.92251
H          0.59252        0.51654       -1.00425
H          0.64297       -1.06132       -0.19135
H          2.06104        0.00023       -0.16572
H         -0.63308        0.50346        1.21297
H          0.87623        0.12024        2.03721
H          3.74445        3.45783        1.42862
H          1.28725        4.75694        0.17162
H          2.95625        5.32666        0.12876
H          2.50201        3.83824       -0.71675
H          2.58409        6.30136        2.13950
H          2.17079        7.27917        4.34602
H          1.71194        5.82735        6.30269
H          1.69576        3.36194        6.03231
H          2.13585        2.35085        3.83945
