47

C          1.40570       -0.56176        1.87831
C          0.38768       -1.42301        1.74355
C         -0.52716       -1.37742        0.52495
C         -1.72366       -2.15991        1.08258
C         -0.92621       -3.34198        1.69059
C         -0.05819       -2.57075        2.66900
O          1.05538       -3.33047        3.08400
C         -1.00711       -2.27440        3.88543
C         -2.49600       -1.94938        3.49101
C         -2.42765       -1.22137        2.16939
C         -3.56235       -0.56915        1.38093
C         -2.97205        0.72085        0.79682
C         -3.13201        1.04458       -0.49025
C         -3.99738        0.18945       -1.34952
O         -3.09304       -0.48399       -2.21746
C         -4.84040       -0.80462       -0.50896
C         -5.77830       -1.61097       -1.39685
C         -5.58809       -0.06255        0.63947
O         -6.66825        0.50465        0.54934
O         -4.83185       -0.14876        1.83392
C         -4.01472       -1.66789        0.42958
C         -2.81486       -2.53935        0.05977
C         -3.18744       -4.01676        0.18073
O         -2.87686       -4.89771       -0.60459
O         -3.84148       -4.32789        1.31930
H          1.58992        0.18863        1.11067
H          2.08285       -0.57457        2.72205
H         -0.06997       -1.89864       -0.32448
H         -0.75097       -0.35734        0.21216
H         -1.51721       -4.10931        2.19847
H         -0.32770       -3.87372        0.93528
H          1.70808       -2.70324        3.43672
H         -0.59103       -1.45403        4.48084
H         -1.02122       -3.15017        4.54909
H         -2.96111       -1.33935        4.27191
H         -3.08272       -2.87115        3.41274
H         -1.76115       -0.38932        2.44051
H         -2.43845        1.39651        1.46283
H         -2.69256        1.94868       -0.89907
H         -4.64047        0.83979       -1.95194
H         -3.60440       -0.97407       -2.88164
H         -6.23463       -0.96674       -2.15878
H         -5.24532       -2.41216       -1.91872
H         -6.59912       -2.05482       -0.82552
H         -4.74631       -2.30222        0.95758
H         -2.48366       -2.39147       -0.96886
H         -3.91437       -5.30631        1.32209
