22

Cl        -2.09761        0.04483       -0.02175
C         -0.37665        0.00827       -0.01818
C          0.28696       -1.21565       -0.04134
C          1.67975       -1.24309       -0.04071
C          2.40108       -0.04613       -0.01753
C          1.74530        1.19710        0.00747
C          2.50901        2.45437        0.03487
C          3.46468        2.74177       -0.95378
C          4.19048        3.93574       -0.92818
C          3.97355        4.86184        0.08888
C          3.03103        4.59602        1.07890
C          2.30435        3.40265        1.05087
C          0.34073        1.20521        0.00691
H         -0.27273       -2.14676       -0.05938
H          2.20622       -2.19408       -0.05511
H          3.48914       -0.08785       -0.00599
H          3.64214        2.03674       -1.76349
H          4.92261        4.14192       -1.70458
H          4.53824        5.79022        0.10978
H          2.86120        5.31544        1.87574
H          1.58014        3.21064        1.84016
H         -0.19614        2.15129        0.01432
