34

O          0.93018        0.05518       -0.24467
C          0.37978        0.32761       -1.55954
C          0.92063        1.74488       -1.88867
C          2.22163        1.96068       -2.38490
C          2.68926        3.25151       -2.66493
C          1.88796        4.35694       -2.40000
Cl         2.45848        5.94001       -2.75095
C          0.63307        4.18466       -1.83302
C          0.16214        2.89484       -1.57033
C          0.86517       -0.85881       -2.38869
C          0.77220       -2.15545       -1.89889
N          1.13955       -3.26657       -2.57449
C          1.61925       -3.06108       -3.80578
N          1.75376       -1.87101       -4.40372
C          1.35495       -0.80042       -3.68098
C         -1.16925        0.28818       -1.44918
C         -1.78279        0.12713       -0.18390
C         -3.17253        0.12607       -0.03428
C         -3.99225        0.26973       -1.14555
C         -3.42103        0.43104       -2.40375
C         -2.02789        0.45550       -2.55843
Cl        -1.46344        0.77246       -4.16059
H          1.61805        0.71504       -0.05650
H          2.90163        1.12970       -2.56543
H          3.68297        3.38532       -3.08557
H          0.01229        5.04337       -1.58967
H         -0.81806        2.81187       -1.10292
H          0.37435       -2.35205       -0.90501
H          1.92195       -3.93547       -4.37130
H          1.44268        0.13619       -4.22475
H         -1.17828        0.01509        0.71537
H         -3.61155        0.01499        0.95462
H         -5.07346        0.26578       -1.03436
H         -4.07004        0.55358       -3.26851
