29

O          1.10046        0.18345       -0.44915
C          2.30648        0.05259       -0.21622
C          2.90545        0.71182        0.99308
C          3.67725       -0.10426        1.98887
O          4.82486        0.23641        2.29359
C          3.08904       -1.30102        2.66648
C          3.76198       -1.79536        3.79636
C          3.31796       -2.94781        4.44666
C          2.20268       -3.62712        3.96677
C          1.52019       -3.14056        2.85375
C          1.95052       -1.97369        2.21230
C          3.13511       -0.70424       -1.20012
C          4.31685       -1.37401       -0.87040
C          4.98627       -2.13283       -1.83656
C          4.49530       -2.20962       -3.13846
C          3.33147       -1.52828       -3.48187
C          2.65095       -0.78575       -2.51583
H          3.55797        1.51382        0.62390
H          2.10263        1.21411        1.54808
H          4.64476       -1.28396        4.17829
H          3.84945       -3.31696        5.32029
H          1.86424       -4.53513        4.45970
H          0.65012       -3.67428        2.47697
H          1.37542       -1.64295        1.35564
H          4.74106       -1.36085        0.12605
H          5.89099       -2.67367       -1.56693
H          5.01851       -2.80367       -3.88369
H          2.94576       -1.58175       -4.49688
H          1.73271       -0.27096       -2.79562
