37

C          1.04065       -0.06965        0.05482
C          0.32754       -1.04001       -0.53010
C         -1.17868       -1.01819       -0.66945
C         -1.69980       -0.76249       -2.10989
C         -3.26605       -0.83677       -2.19783
C         -3.87085       -2.19687       -1.82119
C         -3.92439        0.22046       -1.32649
C         -4.48912        1.12736       -0.57905
C         -5.09735        2.16041        0.26825
C         -4.03884        3.08209        0.84953
C         -1.15897       -1.81671       -3.05625
O         -0.83671       -2.95266       -2.71520
N         -1.13268       -1.47491       -4.37631
C         -1.04600       -0.20546       -4.86263
O         -0.73305       -0.03882       -6.03982
N         -1.24208        0.82089       -3.96236
C         -1.03434        2.17491       -4.44468
C         -1.28901        0.63425       -2.58439
O         -1.08047        1.56295       -1.80102
H          0.56704        0.82640        0.44751
H          2.11967       -0.14577        0.14572
H          0.84825       -1.92266       -0.89966
H         -1.53527       -1.98764       -0.30063
H         -1.58858       -0.26897        0.02025
H         -3.58064       -0.62415       -3.22944
H         -3.67216       -2.46169       -0.77776
H         -4.96092       -2.17561       -1.94060
H         -3.49487       -3.00017       -2.46099
H         -5.81095        2.74871       -0.31880
H         -5.65808        1.68914        1.08277
H         -3.47650        3.58814        0.05709
H         -4.50433        3.84728        1.47870
H         -3.32313        2.52475        1.46387
H         -0.81484       -2.19305       -5.01376
H          0.03626        2.39985       -4.39922
H         -1.37578        2.27573       -5.47935
H         -1.57668        2.89328       -3.82235
