13

O          1.06505       -0.03008       -0.06379
C          0.52130       -0.65120       -1.22340
C          0.87781        0.18086       -2.39475
C          0.78378        1.53098       -2.66502
C          1.28947        1.71384       -3.97402
C          1.65762        0.46615       -4.41957
O          1.41547       -0.47031       -3.46647
H          2.02300        0.04296       -0.21781
H          0.92764       -1.66416       -1.30011
H         -0.56430       -0.71519       -1.10874
H          0.39790        2.28430       -1.99159
H          1.37405        2.63909       -4.52606
H          2.08479        0.09554       -5.34094
