17

N          2.35939       -0.07153        0.21639
C          0.97471       -0.00978        0.00443
C          0.24293       -1.20598        0.07209
C         -1.15158       -1.21121        0.00462
C         -1.84367       -0.01144       -0.08853
C         -1.13745        1.18939       -0.10048
C          0.27293        1.20649       -0.04086
C          0.96061        2.54751       -0.00999
F          0.40177        3.44070       -0.87959
F          0.90038        3.14438        1.21340
F          2.28494        2.50934       -0.34427
H          2.78608       -0.94968       -0.06496
H          2.88543        0.73013       -0.13102
H          0.76165       -2.15558        0.18291
H         -1.69314       -2.15286        0.04336
H         -2.92993       -0.00797       -0.13066
H         -1.69036        2.12723       -0.14514
