28

O          0.96947       -0.05190        0.08905
C          2.17463        0.06795       -0.11640
N          3.06295       -0.89779        0.35783
C          4.43860       -1.05837        0.51917
O          4.89951       -2.16267        0.80462
C          5.36498        0.06900        0.32196
C          6.41445       -0.09161       -0.59033
C          7.27324        0.97501       -0.85161
C          7.09716        2.18830       -0.18534
C          6.08249        2.32921        0.76405
C          5.22128        1.26373        1.03277
C          2.65938        1.25792       -0.83668
C          3.46286        1.14516       -1.97455
C          3.95409        2.30100       -2.58439
C          3.61766        3.55821       -2.07752
C          2.76825        3.66800       -0.97600
C          2.27741        2.51753       -0.36029
H          2.56393       -1.71666        0.68308
H          6.54872       -1.03793       -1.10957
H          8.07371        0.86295       -1.57851
H          7.75578        3.02573       -0.40316
H          5.95533        3.27566        1.28378
H          4.43487        1.38070        1.77322
H          3.72843        0.17078       -2.37518
H          4.61150        2.22344       -3.44685
H          4.01533        4.45555       -2.54568
H          2.49501        4.64807       -0.59329
H          1.61647        2.60057        0.49959
