22

C          0.99637        0.18081        0.15709
C          0.52809       -0.26172        1.51648
O         -0.16137        0.48447        2.21520
N          0.79481       -1.52294        1.96701
C          1.66057       -2.51919        1.49143
C          1.36642       -3.84122        1.84190
C          2.16142       -4.89298        1.37813
C          3.28471       -4.62417        0.58816
S          4.21492       -6.01959        0.00928
O          4.85527       -6.62922        1.15541
O          3.37170       -6.75695       -0.90766
Cl         5.73717       -5.27579       -1.13598
C          3.62237       -3.30535        0.28526
C          2.80846       -2.25914        0.73954
H          0.29938        0.93306       -0.22658
H          0.98938       -0.64765       -0.55569
H          1.98820        0.63143        0.22667
H          0.21979       -1.75750        2.76924
H          0.49068       -4.07399        2.44456
H          1.89304       -5.91820        1.62924
H          4.50536       -3.04764       -0.29096
H          3.12863       -1.24454        0.52694
