54

C          0.85119       -0.92236       -0.08184
C          0.30341        0.16010        0.78432
O          0.47926        1.34767        0.51412
O         -0.31259       -0.31714        1.91645
C         -0.51138        0.72691        2.85713
C         -1.69048        1.68344        2.52749
C         -2.09319        2.31563        3.87512
C         -0.96144        1.84850        4.78420
C         -0.94802        2.15363        6.27444
C         -1.09011        3.67203        6.45527
C         -0.86369        4.09820        7.88990
C          0.50166        3.65847        8.35252
C          1.36928        4.58245        8.80285
C          2.69334        4.20208        9.33928
O          3.49838        5.07636        9.64818
C          2.95190        2.73820        9.57019
C          2.35042        1.92708        8.43147
C          0.81730        2.15837        8.23736
C          0.04786        1.39353        9.32978
C          0.43534        1.65524        6.79996
C          0.53515        0.12583        6.57577
C          0.48297       -0.23236        5.07465
C         -0.73461        0.37689        4.35594
C         -1.95232       -0.54437        4.60789
H          0.49013       -0.77350       -1.10300
H          0.54614       -1.90883        0.26794
H          1.94391       -0.85654       -0.06304
H          0.42153        1.31352        2.84349
H         -1.35517        2.46890        1.84137
H         -2.52808        1.16915        2.04648
H         -2.15496        3.40467        3.79824
H         -3.06980        1.95063        4.21062
H         -0.08951        2.42625        4.42749
H         -1.76718        1.64085        6.79198
H         -0.36476        4.19335        5.81306
H         -2.08355        4.00082        6.13030
H         -0.97146        5.18860        7.94769
H         -1.63606        3.67268        8.53918
H          1.14261        5.64277        8.83081
H          4.03476        2.57635        9.60012
H          2.53339        2.45463       10.54046
H          2.88350        2.20608        7.51082
H          2.56706        0.86599        8.59975
H         -1.02878        1.37341        9.13245
H          0.38705        0.35409        9.40222
H          0.19157        1.84916       10.31619
H          1.19370        2.10086        6.13563
H         -0.27651       -0.38555        7.10821
H          1.47211       -0.26851        6.98210
H          1.41024        0.11199        4.60353
H          0.48246       -1.32587        4.97087
H         -2.20317       -0.58496        5.67462
H         -2.85892       -0.23078        4.08235
H         -1.74704       -1.56959        4.27939
