15

O         -2.74036        0.20988       -0.00531
C         -1.37765        0.13461       -0.00511
C         -0.80087       -1.13150        0.00131
C          0.58478       -1.24798        0.00148
O          1.11992       -2.50292        0.00767
C          1.39493       -0.11666       -0.00439
C          0.79860        1.14140       -0.01035
O          1.62392        2.22875       -0.01526
C         -0.58790        1.28263       -0.01104
H         -3.00748        1.14296       -0.01018
H         -1.42533       -2.01950        0.00608
H          2.08830       -2.42582        0.00630
H          2.47691       -0.19338       -0.00420
H          1.08351        3.03575       -0.01513
H         -1.04354        2.26564       -0.01618
