31

C          0.84585       -0.07038       -0.03194
C          0.21284        0.34629       -1.29832
O         -0.52062       -0.59019       -1.95508
N         -0.96903       -0.06424       -3.15307
C         -0.43159        1.15081       -3.24219
N         -0.39739        1.94105       -4.37634
S         -1.00672        1.64672       -5.89378
O         -2.39905        2.04396       -5.88008
O         -0.07201        2.30800       -6.78638
C         -0.93559       -0.07301       -6.31507
C          0.01982       -0.94647       -5.80083
C         -0.07845       -2.31577       -6.08242
C         -1.11071       -2.81516       -6.88433
N         -1.15109       -4.17292       -7.22584
C         -1.96556       -1.91025       -7.51383
C         -1.90504       -0.55041       -7.20570
C          0.21511        1.51434       -2.02860
C          0.80128        2.82220       -1.66037
H          0.51434       -1.06564        0.27793
H          0.61584        0.63625        0.77029
H          1.93453       -0.10321       -0.15446
H          0.27704        2.69952       -4.39983
H          0.81891       -0.59654       -5.15555
H          0.64929       -2.99721       -5.64901
H         -2.06633       -4.47714       -7.54590
H         -0.79207       -4.77811       -6.49326
H         -2.70725       -2.25774       -8.22809
H         -2.61502        0.13276       -7.66811
H          1.58312        3.11666       -2.36578
H          0.02130        3.59231       -1.66847
H          1.23401        2.80333       -0.65547
