15

C          0.98023        0.03246       -0.10605
C          0.31540       -0.68783       -1.02548
C         -1.17928       -0.73680       -1.08798
C          1.11579       -1.46381       -2.01599
O          2.33721       -1.48975       -2.04910
O          0.29011       -2.12816       -2.86401
C          0.97473       -2.90087       -3.85035
H          0.45738        0.61877        0.64235
H          2.06701        0.05598       -0.07604
H         -1.53826       -0.36084       -2.05170
H         -1.53826       -1.76249       -0.95363
H         -1.63925       -0.12365       -0.30532
H          1.58781       -2.25484       -4.48664
H          1.58781       -3.67329       -3.37540
H          0.22473       -3.39163       -4.47679
