34

N          0.65232       -0.06163       -0.19356
C          0.57246        1.40595       -0.21846
C          1.13177        1.95883       -1.53003
O          0.39068        2.30883       -2.44920
N          2.48104        2.01599       -1.71316
C          3.57271        1.68797       -0.78695
C          4.52696        0.64089       -1.37991
C          5.14475        0.91918       -2.72780
C          5.25383        2.10927       -3.42331
N          5.90231        1.86905       -4.60750
C          6.25152        0.54479       -4.69795
C          6.94027       -0.13955       -5.70655
C          7.15880       -1.50821       -5.52724
C          6.70164       -2.16339       -4.38706
C          6.01501       -1.46237       -3.38931
C          5.78524       -0.07883       -3.54179
C          4.37147        2.88803       -0.27699
O          5.19618        2.85518        0.62561
O          4.14798        4.04140       -0.93626
H          0.08241       -0.42075       -0.96270
H          1.60205       -0.35991       -0.40383
H         -0.47555        1.71325       -0.13406
H          1.10033        1.84331        0.63336
H          2.74148        2.44403       -2.59424
H          3.12913        1.25848        0.11603
H          5.34510        0.44908       -0.67326
H          3.96564       -0.29963       -1.46729
H          4.92827        3.11570       -3.20017
H          6.10713        2.56397       -5.31243
H          7.29781        0.36808       -6.59640
H          7.69424       -2.06877       -6.29008
H          6.88035       -3.22896       -4.26725
H          5.66680       -1.98537       -2.50393
H          4.77640        4.67084       -0.52176
