49

O         -2.20361        1.27261       -0.14779
C         -1.53805        0.26030       -0.01584
C         -0.07912        0.26858       -0.01266
C          0.76250        1.36607       -0.07762
C          2.13407        1.12415       -0.12321
C          2.62336       -0.19332       -0.12899
C          1.74969       -1.28711       -0.07424
C          0.38156       -1.04531        0.01291
C         -0.80087       -2.03346        0.08932
C         -0.76420       -2.89959        1.39332
C         -1.66842       -3.97334        1.57174
C         -1.63680       -4.79728        2.70124
C         -0.68391       -4.56865        3.68008
O         -0.59201       -5.36075        4.78419
C          0.20982       -3.51645        3.55726
C          0.15780       -2.67840        2.43659
C         -0.76728       -2.86513       -1.24329
C         -0.93840       -2.22914       -2.49435
C         -0.88575       -2.94278       -3.69849
C         -0.66220       -4.31154       -3.67388
O         -0.61688       -5.05239       -4.81609
C         -0.45740       -4.96661       -2.47178
C         -0.47758       -4.24545       -1.27416
N         -1.94795       -1.06058        0.13689
C         -3.30469       -1.42226       -0.04475
C         -4.02158       -2.01982        0.99420
C         -5.35406       -2.39870        0.81523
C         -5.99302       -2.14505       -0.39550
C         -5.30995       -1.48163       -1.41229
C         -3.97683       -1.10458       -1.23017
H          0.36181        2.37498       -0.09533
H          2.82907        1.96010       -0.16611
H          3.69726       -0.36311       -0.17939
H          2.14054       -2.30090       -0.08954
H         -2.41376       -4.19286        0.80679
H         -2.35396       -5.60754        2.78604
H         -1.27639       -6.04794        4.73119
H          0.95271       -3.34430        4.33171
H          0.87175       -1.85938        2.40704
H         -1.10137       -1.15461       -2.55053
H         -1.01712       -2.41148       -4.63581
H         -0.76393       -4.46343       -5.57387
H         -0.27081       -6.03708       -2.46010
H         -0.25594       -4.80463       -0.36937
H         -3.56394       -2.16478        1.96862
H         -5.89496       -2.87640        1.62769
H         -7.02956       -2.43926       -0.53696
H         -5.81551       -1.24968       -2.34587
H         -3.46946       -0.57003       -2.02795
