31

C          1.14488        0.10153        0.11825
C          0.40331        1.08402       -0.80453
C          0.78473        0.80166       -2.28319
C          0.23087        1.74130       -3.39848
C          0.99183        1.42268       -4.70413
C         -1.26316        1.52645       -3.69498
C          0.47268        3.15997       -3.05338
N          0.66782        4.26884       -2.77326
C         -1.09037        1.04167       -0.55548
C         -1.77976        2.23734       -0.29385
C         -3.17154        2.24775       -0.19269
C         -3.88891        1.06124       -0.32402
C         -3.21487       -0.13886       -0.53952
C         -1.82382       -0.15031       -0.65463
H          0.92543       -0.94246       -0.13170
H          0.87070        0.25924        1.16733
H          2.22884        0.23687        0.03257
H          0.77596        2.08135       -0.53646
H          0.51893       -0.23433       -2.53568
H          1.88374        0.84116       -2.33001
H          0.84068        0.37867       -5.00176
H          0.64991        2.05802       -5.53068
H          2.06923        1.59128       -4.59442
H         -1.55091        1.99984       -4.64201
H         -1.50480        0.46108       -3.77540
H         -1.91499        1.97449       -2.94403
H         -1.24090        3.18060       -0.21598
H         -3.69500        3.18704       -0.03405
H         -4.97374        1.07304       -0.26339
H         -3.77433       -1.06569       -0.63538
H         -1.32337       -1.09588       -0.84845
