16

C          1.00499        0.03152       -0.11178
N          0.50406        1.33526       -0.54431
C         -0.29940        1.46495       -1.67982
N         -0.72328        2.71507       -2.01274
N         -0.59570        0.38213       -2.35323
N         -1.36354        0.40129       -3.46199
O         -1.83970        1.45509       -3.91491
O         -1.56847       -0.69240       -4.00540
N          0.89191        2.39438        0.25647
O          1.60500        2.11917        1.22820
O          0.51500        3.53513       -0.03299
H          0.68629       -0.79160       -0.75917
H          0.64230       -0.21110        0.89428
H          2.10149        0.01561       -0.11231
H         -1.31136        2.86649       -2.83113
H         -0.47644        3.54004       -1.46910
