15

O          1.15534        0.03469       -0.54408
C          2.23810        0.08841        0.02260
C          2.85441       -1.02633        0.78389
C          3.91499       -0.70134        1.64092
C          4.52364       -1.70254        2.39683
Br         5.94606       -1.26225        3.56165
C          4.09182       -3.02426        2.30424
C          3.04157       -3.35199        1.44450
C          2.42460       -2.35501        0.68462
O          1.42125       -2.70164       -0.17111
H          2.81798        1.02689        0.01167
H          4.25800        0.32637        1.72980
H          4.56697       -3.80550        2.89288
H          2.72258       -4.38828        1.37397
H          1.18453       -3.63534       -0.05722
