16

O          1.13178        0.54709        0.17562
C          2.30464        0.23244        0.02468
O          3.04320        0.70048       -1.00860
C          3.08143       -0.65245        1.00278
O          2.71505       -0.35053        2.35140
C          2.73654       -2.10452        0.67379
O          3.10539       -2.40083       -0.67740
C          3.44453       -3.04108        1.64505
O          2.91298       -3.90822        2.32331
O          4.78850       -2.91224        1.64593
H          3.94884        0.33505       -1.05287
H          4.15244       -0.44837        0.89809
H          2.61036        0.61731        2.41753
H          1.65766       -2.27144        0.78450
H          2.59399       -3.19099       -0.93636
H          5.08712       -3.59116        2.28838
