21

C          0.61342        0.11956        0.25816
C          0.64847        1.09924       -0.90449
O          1.06020        0.46873       -2.12361
C          2.40855        0.51496       -2.33542
C          2.88655        1.27190       -3.39911
C          4.25118        1.24860       -3.71020
C          5.15657        0.46542       -2.97791
N          6.50063        0.48567       -3.40928
C          7.30953        0.02873       -2.69180
S          8.45001       -0.58323       -1.76060
C          4.64446       -0.30783       -1.92265
C          3.28094       -0.28999       -1.61124
H          0.32621       -0.88377       -0.07207
H         -0.08352        0.45733        1.03049
H          1.59907        0.04465        0.72830
H         -0.37342        1.45350       -1.08256
H          1.25323        1.98465       -0.67107
H          2.20257        1.86375       -4.00094
H          4.61339        1.83424       -4.55291
H          5.28147       -0.96472       -1.33728
H          2.91142       -0.94330       -0.82821
