31

C          1.08044       -0.04161       -0.05534
N          0.69987        1.09928        0.76493
C         -0.04812        0.85812        1.90078
O         -0.43448       -0.24974        2.26607
C         -0.39840        2.02681        2.73417
C         -0.03637        3.29018        2.45474
C          0.75077        3.51368        1.21813
C          1.14978        4.82591        0.86414
C          1.88990        5.02401       -0.31843
Br         2.51530        6.69849       -0.97526
C          2.22437        3.93205       -1.12381
C          1.83622        2.64409       -0.76971
C          1.09976        2.41735        0.39775
C          0.76809        5.95211        1.76987
O          1.08139        7.11224        1.52915
C         -0.01003        5.70093        3.00845
C         -0.32924        6.80032        3.82693
C         -1.05555        6.62294        5.00015
C         -1.46715        5.34732        5.36031
C         -1.15115        4.25174        4.54905
C         -0.41561        4.40679        3.35774
H          0.64943        0.06766       -1.05542
H          0.71968       -0.98587        0.36262
H          2.17219       -0.10009       -0.11247
H         -0.97680        1.74002        3.60272
H          2.79458        4.07348       -2.04075
H          2.12490        1.83556       -1.43497
H         -0.00851        7.80342        3.54945
H         -1.29675        7.47729        5.62745
H         -2.03543        5.19859        6.27590
H         -1.50024        3.28054        4.88724
