29

O          0.70043       -0.06965       -0.12231
C          0.60723        1.17451       -0.83205
C          1.23584        2.31568        0.01035
C          2.74819        2.39933        0.08611
C          3.57309        1.26734        0.05659
C          4.96232        1.39383        0.12450
C          5.54582        2.65246        0.24065
C          4.73991        3.78585        0.29703
C          3.35114        3.66014        0.22696
C          1.13293        1.02956       -2.25289
C          1.32171       -0.23894       -2.82704
C          1.81901       -0.37757       -4.12506
C          2.12461        0.75138       -4.87894
C          1.91822        2.01807       -4.34058
C          1.41636        2.15617       -3.04363
H          0.55549        0.11399        0.82018
H         -0.46799        1.37924       -0.91470
H          0.85958        3.26841       -0.38530
H          0.86950        2.24401        1.04299
H          3.15407        0.26869       -0.04096
H          5.58693        0.50565        0.07870
H          6.62696        2.74814        0.28624
H          5.19203        4.76947        0.39115
H          2.74103        4.55956        0.27212
H          1.09387       -1.13698       -2.25590
H          1.97268       -1.36934       -4.54145
H          2.52261        0.64417       -5.88399
H          2.15453        2.90214       -4.92673
H          1.26869        3.16087       -2.65647
