15

C          1.00172        0.10520       -0.05134
C          0.43158        0.34780        1.34927
C          0.93554        1.69050        1.88406
C         -1.10606        0.32433        1.35857
C         -1.64777       -1.00028        1.02165
N         -2.07853       -2.04376        0.75221
H          0.63699        0.85300       -0.76369
H          0.72653       -0.88522       -0.42762
H          2.09582        0.15694       -0.03799
H          0.80729       -0.44330        2.01158
H          0.59591        2.52101        1.25553
H          0.57293        1.86558        2.90242
H          2.03015        1.71271        1.91180
H         -1.46875        0.60317        2.35570
H         -1.49984        1.07225        0.65991
