22

Cl         1.24662        1.75300       -0.45253
C         -0.14617        0.75643       -0.20505
C         -1.37424        1.40504       -0.04957
C         -2.53611        0.66492        0.14963
C         -2.47179       -0.72733        0.20660
C         -1.24659       -1.40705        0.06004
C         -1.24194       -2.88301        0.13479
C         -1.70541       -3.61177       -0.97449
C         -1.71190       -5.00595       -0.96483
C         -1.24904       -5.70219        0.15294
Cl        -1.28643       -7.43048        0.07137
C         -0.78704       -5.00639        1.27955
Cl        -0.21554       -5.88415        2.66761
C         -0.79446       -3.59682        1.27287
Cl        -0.27890       -2.70918        2.68220
C         -0.07534       -0.64599       -0.16197
Cl         1.44531       -1.45454       -0.41060
H         -1.43069        2.49093       -0.08518
H         -3.49156        1.17185        0.26605
H         -3.39133       -1.28744        0.37364
H         -2.06066       -3.09038       -1.86317
H         -2.07542       -5.54478       -1.83769
