20

C          2.51071       -0.13308       -0.00456
C          1.01644        0.06014        0.00109
C          0.27423       -1.14314       -0.00207
C         -1.12148       -1.14991       -0.00985
C         -1.82386        0.05304       -0.01635
C         -3.30606        0.00060       -0.02980
O         -3.98154       -1.01129       -0.03061
O         -3.86759        1.22067       -0.04467
C         -1.11822        1.26104       -0.01337
C          0.29655        1.27701       -0.00644
N          0.93129        2.61671       -0.00914
O          0.18063        3.60386       -0.03275
O          2.16229        2.70392        0.01276
H          2.80001       -0.75430        0.85134
H          2.80673       -0.65086       -0.92412
H          3.11469        0.76650        0.05922
H          0.79438       -2.10221       -0.00050
H         -1.65430       -2.09986       -0.01284
H         -4.83205        1.04310       -0.05559
H         -1.68101        2.19406       -0.01831
