24

C          2.52603        0.02337        0.00335
C          1.02660        0.01346       -0.00037
C          0.33566       -1.20256       -0.00253
C         -1.06155       -1.22570       -0.01284
C         -1.79870       -0.03313       -0.02208
C         -3.31672       -0.03258       -0.04075
C         -3.86205       -0.69042       -1.31089
C         -3.89683       -0.69732        1.21007
C         -1.10037        1.18260       -0.01846
C          0.29729        1.20589       -0.00821
H          2.90512       -0.50427        0.88445
H          2.90795       -0.46301       -0.90001
H          2.92129        1.04420        0.02847
H          0.88258       -2.14267        0.00238
H         -1.56847       -2.18775       -0.01566
H         -3.66564        1.00870       -0.04245
H         -3.60527       -1.75401       -1.36444
H         -4.95384       -0.60997       -1.34787
H         -3.45964       -0.20454       -2.20681
H         -3.52082       -0.21526        2.11937
H         -4.98939       -0.61812        1.21621
H         -3.64075       -1.76091        1.26582
H         -1.63993        2.12706       -0.02538
H          0.80985        2.16503       -0.00760
