45

C          1.53507        0.09197        0.50387
C          0.93586        1.44570        0.15767
C          1.22017        1.88278       -1.28420
C          0.50168        1.05072       -2.34695
O         -0.90990        1.18250       -2.13437
C         -1.57332        0.10384       -1.65166
O         -1.10335       -1.01857       -1.51835
C         -2.92777        0.49680       -1.11534
C         -3.43180        1.86280       -1.58008
P         -3.82646        1.88357       -3.33644
O         -4.00380        0.47668       -3.84901
O         -2.53223        2.60052       -4.01031
C         -2.64123        2.93126       -5.34196
C         -1.47177        2.82865       -6.09760
C         -1.52048        3.04448       -7.46992
C         -2.73395        3.36169       -8.07370
C         -3.89553        3.50075       -7.30196
C         -3.87990        3.31512       -5.90832
C         -5.08239        3.53896       -5.05442
C         -6.18566        4.30600       -5.46796
C         -7.25522        4.56952       -4.60532
C         -7.23697        4.09139       -3.30069
C         -6.17665        3.30032       -2.87331
C         -5.12129        3.00321       -3.74748
H          1.18878       -0.69614       -0.16920
H          1.25271       -0.19385        1.52215
H          2.62746        0.12894        0.45270
H         -0.14281        1.42914        0.34904
H          1.35367        2.19507        0.84019
H          0.88244        2.92288       -1.38064
H          2.29879        1.87267       -1.47384
H          0.71720        1.46233       -3.33887
H          0.84082        0.01009       -2.35067
H         -3.64159       -0.27901       -1.41273
H         -2.85403        0.49532       -0.02246
H         -4.34119        2.07289       -1.01023
H         -2.72425        2.66326       -1.33698
H         -0.53618        2.55089       -5.62114
H         -0.62084        2.94274       -8.07102
H         -2.78198        3.50176       -9.15110
H         -4.81739        3.74317       -7.82365
H         -6.23324        4.72756       -6.46826
H         -8.10000        5.15789       -4.95503
H         -8.05783        4.31730       -2.62470
H         -6.19378        2.90468       -1.86244
