20

C          0.20978       -0.03217       -0.04762
C          0.83953        1.26407       -0.52314
C          1.15953        1.24536       -2.00876
O          0.24148        1.21782       -2.83832
N          2.48463        1.26609       -2.40039
C          2.86139        1.98233       -3.52566
O          1.88747        2.55667       -4.26717
N          4.07794        2.16469       -3.92498
C          5.06560        1.57642       -3.18716
C          4.84083        0.79850       -2.13278
F          5.82738        0.20184       -1.44021
C          3.44960        0.55456       -1.70531
O          3.22426       -0.27649       -0.82945
H         -0.54061       -0.40202       -0.75322
H         -0.27586        0.11898        0.92177
H          0.95982       -0.81777        0.07817
H          0.12419        2.08391       -0.37885
H          1.71430        1.52640        0.07905
H          0.99344        2.23878       -4.03072
H          6.08491        1.75847       -3.51624
