37

C          1.05405       -0.23667       -0.22331
C          0.73051        0.76530        0.87126
C          1.11085        2.20791        0.52877
C          0.38314        2.82437       -0.67097
C         -1.14068        2.85985       -0.57117
C         -1.66811        4.02465        0.23918
O         -2.24567        4.96718       -0.28405
O         -1.39704        3.83784        1.55632
C         -1.93703        4.71937        2.43641
O         -2.74838        5.60633        2.21120
C         -1.39021        4.46913        3.82565
C         -1.91135        3.18386        4.46576
C         -1.19384        1.89665        4.04480
C          0.31325        1.85509        4.30948
C          0.68615        1.93969        5.77934
H          0.50209       -0.02506       -1.14280
H          0.78122       -1.24536        0.10454
H          2.12504       -0.23434       -0.44809
H         -0.33124        0.69469        1.12542
H          1.28347        0.46916        1.76931
H          0.94530        2.83523        1.41036
H          2.19008        2.24835        0.33426
H          0.76208        3.84442       -0.81376
H          0.66188        2.26719       -1.57297
H         -1.54340        2.98561       -1.58513
H         -1.57534        1.92926       -0.19650
H         -0.29909        4.53503        3.80471
H         -1.72441        5.31407        4.44250
H         -1.84197        3.28249        5.55535
H         -2.97887        3.07083        4.23749
H         -1.66413        1.05411        4.56744
H         -1.36993        1.71934        2.97911
H          0.70360        0.90867        3.91975
H          0.82514        2.64998        3.75902
H          0.24105        1.11292        6.34139
H          1.77374        1.87516        5.89054
H          0.36143        2.88286        6.22641
