19

C          1.06890        0.00117        0.06973
C          0.58743        1.19336       -0.74815
C          1.10312        1.26429       -2.16753
C          1.35604        0.12048       -2.93897
C          1.79908        0.23131       -4.26094
C          1.97619        1.49054       -4.82199
O          2.40324        1.64312       -6.10766
C          1.71446        2.63672       -4.08507
C          1.27470        2.52412       -2.76468
H          0.66635       -0.94103       -0.31543
H          0.73329        0.09907        1.10744
H          2.16181       -0.06608        0.07016
H         -0.50866        1.19249       -0.77932
H          0.89331        2.10214       -0.21428
H          1.20935       -0.87394       -2.52589
H          1.99296       -0.67128       -4.83133
H          2.54526        0.76243       -6.49089
H          1.84781        3.61576       -4.53589
H          1.06511        3.43181       -2.20274
