15

C          0.97751        0.03155        0.09219
C         -0.32635        0.03155        0.09219
C         -1.84635        0.03155        0.09219
C         -2.35699        1.13447        1.02474
C         -2.35920        0.25207       -1.33289
N         -2.30147       -1.27381        0.56789
H          2.04275        0.02358        0.08911
H         -2.01268        2.12179        0.69426
H         -3.45254        1.15777        1.05556
H         -1.99589        0.99370        2.05088
H         -1.99926       -0.52751       -2.01558
H         -3.45487        0.24969       -1.36996
H         -2.01531        1.21379       -1.73223
H         -1.93855       -1.42912        1.50713
H         -3.31582       -1.27336        0.64937
