36

C         -0.41704       -0.53799       -0.68201
C         -0.38754        0.17906       -2.00081
O         -1.21023       -0.10153       -2.87728
C          0.70964        1.19175       -2.27124
C          0.64156        2.45654       -1.41418
C          1.34373        2.70746       -0.06188
C          2.04434        1.82895        0.70757
C          2.52396        0.44289        0.36545
C          2.47654        2.15060        2.13437
C          1.85308        3.40055        2.72392
C          1.98184        4.51681        1.71416
C          1.18772        4.20735        0.41551
C          1.75053        5.19029       -0.64342
C         -0.29669        4.55920        0.66070
H         -1.32647       -1.14287       -0.61677
H         -0.42999        0.17750        0.14126
H          0.44247       -1.20757       -0.61142
H          1.68923        0.72223       -2.31978
H          0.52803        1.51601       -3.30797
H          0.99048        3.24360       -2.09072
H         -0.42590        2.65111       -1.24641
H          3.59234        0.35705        0.59894
H          1.99404       -0.30468        0.96348
H          2.44340        0.17208       -0.67769
H          2.21752        1.30992        2.79117
H          3.56984        2.24547        2.15457
H          2.36783        3.66713        3.65388
H          0.80258        3.22379        2.98196
H          3.04731        4.65794        1.48258
H          1.64395        5.45950        2.16277
H          1.10334        5.27507       -1.52228
H          1.84655        6.20265       -0.23240
H          2.74516        4.87657       -0.98248
H         -0.39710        5.56189        1.09383
H         -0.87482        4.56726       -0.26943
H         -0.77416        3.85042        1.34482
