49

C          1.04991        0.58498       -0.63592
C          0.48438        0.86079        0.74509
O          1.32899        1.62301        1.59752
C          2.59511        1.05449        1.93849
C          2.53888       -0.11383        2.93096
O          1.94696       -1.28006        2.32699
C          0.87402       -1.82103        2.96600
O          0.39672       -1.45827        4.02850
C          0.30489       -2.90540        2.11899
C          1.22880       -3.95415        1.84811
N          2.00139       -4.79684        1.65950
C         -0.98765       -2.88262        1.69190
C         -1.97039       -1.78091        2.07650
C         -2.66695       -1.17382        0.85744
C         -3.35649       -2.23742        0.03142
C         -2.33693       -3.28975       -0.37186
N         -2.26286       -3.50980       -1.62963
C         -1.67150       -4.57614       -2.41110
C         -0.18470       -4.46647       -2.71610
C          0.77513       -4.82469       -1.59519
O          0.92868       -6.20326       -1.27959
C         -0.21283       -6.96784       -0.94825
C         -1.63727       -3.95881        0.81042
H          1.19858        1.52149       -1.18068
H          0.36181       -0.04726       -1.20638
H          2.01321        0.07055       -0.59578
H         -0.44778        1.42539        0.63499
H          0.20592       -0.06926        1.22904
H          3.14578        0.78305        1.03454
H          3.15894        1.86472        2.41498
H          3.56463       -0.38914        3.20245
H          2.01817        0.19345        3.84286
H         -2.72041       -2.21339        2.75067
H         -1.50193       -0.96059        2.62425
H         -1.93727       -0.65072        0.22990
H         -3.40413       -0.43376        1.18711
H         -3.82614       -1.79895       -0.85513
H         -4.14187       -2.73694        0.61192
H         -1.99133       -5.55494       -2.05895
H         -2.16167       -4.49635       -3.39315
H          0.03646       -5.12917       -3.56263
H          0.03271       -3.44262       -3.04561
H          1.77579       -4.49985       -1.90437
H          0.56560       -4.23436       -0.70951
H         -1.01036       -6.39803       -0.47646
H         -0.59326       -7.45644       -1.84886
H          0.07801       -7.74376       -0.23489
H         -0.92289       -4.70101        0.49434
H         -2.39870       -4.48501        1.39831
