31

C          1.08775        0.12348       -0.04844
C          0.55754       -0.13814        1.36347
C          1.17283        0.82308        2.37366
O          0.61027        1.46668        3.24443
O          2.52073        0.87769        2.28845
C         -0.96823       -0.13726        1.34491
C         -1.69768        1.05754        1.26472
C         -3.09809        1.05616        1.22084
C         -3.79222       -0.16868        1.23803
C         -3.05442       -1.34814        1.29761
C         -1.65399       -1.36684        1.35214
N         -3.95510       -2.38738        1.28876
C         -5.24802       -1.92073        1.23600
C         -6.46005       -2.62134        1.21307
C         -7.63857       -1.87009        1.16430
C         -7.59550       -0.47826        1.13881
Cl        -9.06822        0.41445        1.08311
C         -6.37861        0.20902        1.15812
C         -5.17727       -0.52815        1.20769
H          0.84802        1.13830       -0.38569
H          0.65817       -0.58165       -0.76904
H          2.17673        0.01379       -0.09090
H          0.89198       -1.13506        1.68215
H          2.77115        1.49596        3.00752
H         -1.18455        2.01762        1.24868
H         -3.64011        1.99616        1.17463
H         -1.11596       -2.30938        1.39384
H         -3.70042       -3.36336        1.32095
H         -6.49213       -3.70596        1.23406
H         -8.59609       -2.38528        1.14766
H         -6.35384        1.29389        1.13860
