25

N          1.55497        0.67198       -0.14333
C          2.69554        0.46274       -0.13591
N          4.01538        0.24942       -0.11610
C          4.48146       -0.89664       -0.48766
S          3.49734       -2.24644       -1.07640
C          4.86726       -3.41562       -0.93813
C          6.11202       -2.55322       -1.08392
N          5.81924       -1.24817       -0.49180
C          6.86777       -0.23230       -0.52995
C          7.84911       -0.40405        0.59968
C          8.86061       -1.37143        0.56727
C          9.72696       -1.50758        1.64848
C          9.56607       -0.64631        2.71818
Cl        10.59435       -0.74509        4.08620
N          8.62441        0.31482        2.78444
C          7.78256        0.40790        1.72966
H          4.81862       -4.19763       -1.70054
H          4.82800       -3.88010        0.05205
H          6.37702       -2.43326       -2.14144
H          6.94799       -3.04809       -0.58182
H          7.40292       -0.27654       -1.48730
H          6.44755        0.78064       -0.48812
H          8.97992       -2.02515       -0.29204
H         10.50233       -2.26490        1.65098
H          7.03046        1.18891        1.82229
