23

C          0.87814        0.05359       -0.03917
C          0.42649       -0.26916        1.35590
C          0.46730       -1.60251        1.77530
C          0.07733       -1.95909        3.06383
O          0.16091       -3.29459        3.35037
C         -0.36585       -1.00164        3.98993
C         -0.77786       -1.42950        5.37426
C         -0.40190        0.35600        3.58540
C         -0.86488        1.43156        4.53805
C          0.01042        0.70048        2.27952
O         -0.00848        2.02954        1.94496
H          0.27759        0.85479       -0.48058
H          0.76668       -0.81379       -0.69936
H          1.93143        0.35051       -0.03158
H          0.80497       -2.38295        1.09652
H         -0.13209       -3.45229        4.25971
H         -1.61326       -2.13518        5.31409
H          0.06563       -1.90867        5.88286
H         -1.10413       -0.60373        6.01000
H         -1.89244        1.23157        4.85957
H         -0.20524        1.46927        5.41117
H         -0.86422        2.43098        4.09390
H          0.45555        2.16092        1.10545
