24

C          0.06941        0.67788        0.58313
C          0.31511       -0.80680        0.53959
C         -0.27003       -1.66616       -0.32065
C         -1.13692       -1.24250       -1.45838
O         -2.11505       -1.84700       -1.86461
O         -0.68094       -0.14877       -2.09452
N         -0.06842       -3.02221       -0.24814
C          0.95160       -3.64133       -0.92019
O          1.54457       -3.35391       -1.93479
C          1.12258       -4.68688        0.21567
N          2.48929       -4.78642        0.77300
C          0.17486       -3.73510        1.01346
S          0.88159       -2.76365        2.37839
C          1.37425       -1.28875        1.48541
H         -0.84460        0.97920        0.06487
H          0.91680        1.21610        0.14703
H         -0.05219        1.00962        1.62044
H         -1.28248       -0.06217       -2.86248
H          0.68769       -5.65927       -0.03986
H          3.20251       -4.89263        0.04924
H          2.76890       -3.97541        1.32690
H         -0.73597       -4.25572        1.33603
H          1.60181       -0.52576        2.23748
H          2.30588       -1.47340        0.93863
