32

C          0.97679        0.82984        0.15158
C          0.39628       -0.13044       -0.57734
C         -1.09053       -0.28931       -0.77756
C         -1.65225        0.11377       -2.17447
C         -2.97905       -0.64535       -2.51028
C         -2.96163       -2.08031       -3.06745
C         -2.37547       -3.17966       -2.18423
C         -3.19180       -3.43715       -0.92597
C         -0.59464       -0.07129       -3.25858
O         -0.27025       -1.16387       -3.72085
N          0.10480        1.04041       -3.64381
C         -0.07294        2.31290       -3.20016
O          0.57574        3.24841       -3.65240
N         -1.05543        2.50655       -2.28575
C         -2.03441        1.59250       -2.03613
O         -3.13970        1.97787       -1.65596
H          0.40431        1.59951        0.65924
H          2.05799        0.85812        0.26212
H          1.03061       -0.88695       -1.04168
H         -1.31046       -1.33516       -0.55915
H         -1.61957        0.26804        0.00904
H         -3.63456       -0.62403       -1.62930
H         -3.51178       -0.05478       -3.27146
H         -4.00130       -2.35400       -3.29552
H         -2.45574       -2.09274       -4.03891
H         -2.35025       -4.11000       -2.76542
H         -1.33480       -2.96255       -1.92848
H         -4.20714       -3.75752       -1.18097
H         -2.72784       -4.23181       -0.33292
H         -3.26537       -2.54796       -0.29433
H          0.83043        0.90324       -4.33325
H         -1.30269        3.47445       -2.13103
