28

O          1.44900        0.03497        1.09805
C          2.46954        0.05947        0.40527
C          3.14683       -1.24935        0.05594
C          3.86786       -1.20486       -1.29361
C          2.99109       -1.19674       -2.53971
C          1.58946       -1.14687       -2.50470
C          0.83909       -1.14959       -3.68525
C          1.47194       -1.21679       -4.92174
C          2.85830       -1.28997       -4.98039
C          3.60845       -1.28657       -3.80214
C          4.87811       -0.05254       -1.26938
C          4.20906        1.27845       -1.01432
O          4.65986        2.29181       -1.55306
C          3.17467        1.33929        0.06816
N          2.13673        2.30951       -0.36898
O          2.00774        3.33650        0.31200
O          1.46826        2.02691       -1.37340
H          3.86823       -1.45515        0.85666
H          2.40339       -2.05438        0.07522
H          4.44246       -2.14075       -1.35651
H          1.03007       -1.10328       -1.57374
H         -0.24618       -1.09566       -3.63506
H          0.88453       -1.21475       -5.83594
H          3.35822       -1.34999       -5.94381
H          4.69093       -1.36133       -3.88838
H          5.44215        0.01473       -2.20548
H          5.60750       -0.20709       -0.46458
H          3.65480        1.71383        0.97859
