11

C          0.96066       -0.04228       -0.08616
N          0.48790       -1.28488        0.47935
C         -0.34380       -1.23827        1.66375
N          0.83579       -2.39529       -0.10860
O          0.38299       -3.40072        0.44872
H          0.61799        0.83459        0.47460
H          0.60557        0.08283       -1.11594
H          2.05640       -0.00392       -0.09371
H         -1.32800       -1.68289        1.47532
H          0.12585       -1.76981        2.49966
H         -0.52476       -0.21357        2.00754
