12

C          1.03699       -0.04570        0.04636
C          0.58572        1.37294        0.37688
N          1.12224        2.30620       -0.67248
O          1.97304        3.07773       -0.21606
C         -0.93097        1.47075        0.44857
F         -1.41380        0.64388        1.40982
F         -1.34543        2.71879        0.76417
F         -1.52661        1.11806       -0.71300
H          0.65488       -0.37504       -0.92679
H          0.68483       -0.75274        0.80485
H          2.13047       -0.11167        0.01090
H          1.00852        1.66853        1.34459
