22

C          0.98380       -0.14142        0.00476
C          0.64630        0.56496       -1.30529
C          1.09171       -0.24963       -2.51725
O         -0.79224        0.73575       -1.37760
C         -1.15630        2.04911       -1.48431
O         -2.28612        2.48380       -1.57686
C          0.07532        2.82587       -1.45975
C          0.22302        4.20046       -1.52921
C          1.51930        4.71364       -1.47753
C          2.62116        3.84970       -1.35821
C          2.44088        2.46380       -1.29254
C          1.14873        1.96421       -1.34683
H          0.50744       -1.12748        0.04766
H          0.60801        0.42205        0.86718
H          2.06397       -0.27347        0.12895
H          2.18051       -0.36104       -2.55555
H          0.64185       -1.24882       -2.49938
H          0.76372        0.22040       -3.45228
H         -0.64119        4.85094       -1.61955
H          1.67913        5.78845       -1.52867
H          3.62602        4.26575       -1.31688
H          3.29846        1.80370       -1.20103
