27

N          2.41093       -0.12397        0.14545
C          1.02290       -0.18182        0.30442
C          0.27700       -1.12537       -0.40566
C         -1.11820       -1.06336       -0.42568
C         -1.78260       -0.03969        0.25826
S         -3.54218        0.09228        0.00690
O         -3.77291       -0.13304       -1.40905
O         -4.16986       -0.73460        1.00885
N         -4.00240        1.65786        0.33533
C         -3.27822        2.76898       -0.12347
C         -2.64805        2.88128       -1.34766
C         -1.84744        4.00143       -1.56711
C         -1.76182        4.94989       -0.56631
Cl        -0.76263        6.32992       -0.71024
N         -2.43282        4.84123        0.59639
N         -3.20819        3.73794        0.81384
C         -1.05135        0.89311        0.99429
C          0.34730        0.84479        0.97118
H          2.84271       -1.02071       -0.05674
H          2.89722        0.38004        0.88014
H          0.77806       -1.90566       -0.97337
H         -1.67801       -1.79889       -1.00095
H         -4.43304        1.78152        1.24947
H         -2.72605        2.11251       -2.10812
H         -1.28939        4.11337       -2.48988
H         -1.52922        1.68848        1.55682
H          0.90964        1.62967        1.47247
