12

N          1.24452       -0.15781        0.16654
N          0.54809       -0.98872        1.04574
C         -0.29220       -0.62533        2.05561
S         -1.00376       -1.83458        2.96924
N         -0.58373        0.67081        2.36082
N         -0.10934        1.82732        1.73965
H          0.57786        0.41729       -0.34586
H          1.85521        0.45629        0.70291
H          0.67151       -1.99628        0.93402
H         -1.22943        0.79100        3.14277
H          0.90711        1.84646        1.80457
H         -0.36953        1.80645        0.75497
