56

C         -0.63888        0.95587        0.45794
C          0.34289        1.68005        1.37570
O          1.51766        2.02503        0.63080
C          2.71315        1.97914        1.30460
C          2.95771        2.78004        2.42502
C          4.23632        2.83145        3.00182
C          5.30379        2.17255        2.39810
C          5.07237        1.38813        1.27484
C          3.77412        1.22634        0.77645
O          3.69708        0.26085       -0.18907
C          2.52600       -0.55484       -0.18108
C          2.28946       -1.46067        1.06760
N          2.08370       -0.80808        2.38009
C          1.29228       -1.56840        3.37053
C          1.92603       -2.95179        3.59748
C          1.19693       -0.85411        4.76531
C          0.16904        0.23895        5.04137
C          0.48304        1.57395        4.77912
C         -0.32633        2.62952        5.22071
C         -1.46693        2.37869        5.98347
O         -1.99452        3.46517        6.62687
C         -3.24487        3.92420        6.12211
C         -1.82027        1.05116        6.23945
S         -3.21994        0.65540        7.24466
N         -2.96666        1.49982        8.67190
O         -4.40686        1.19675        6.63694
O         -3.13733       -0.74074        7.63421
C         -1.01838       -0.01196        5.75074
H         -0.74779        1.48279       -0.49462
H         -1.61876        0.84395        0.92947
H         -0.29130       -0.05549        0.22209
H         -0.12210        2.59197        1.76062
H          0.56002        1.02503        2.21322
H          2.16412        3.37987        2.85812
H          4.41123        3.41596        3.90203
H          6.31102        2.26029        2.79727
H          5.89769        0.86975        0.79247
H          1.65474        0.02455       -0.47473
H          2.66428       -1.23929       -1.02824
H          1.40982       -2.07077        0.83095
H          3.15021       -2.13431        1.15327
H          2.99758       -0.55524        2.76178
H          0.27634       -1.70133        2.98037
H          2.96628       -2.85952        3.93160
H          1.37703       -3.51190        4.36192
H          1.91271       -3.56184        2.68895
H          1.01989       -1.62189        5.53159
H          2.18698       -0.45073        5.02382
H          1.41532        1.80101        4.27789
H         -0.01791        3.65528        5.03113
H         -3.55908        3.43153        5.19769
H         -4.00369        3.78855        6.89948
H         -3.16319        5.00092        5.94041
H         -3.69401        2.20181        8.80541
H         -2.85294        0.85657        9.45329
H         -1.28126       -1.03843        6.00418
