75

C          0.39998       -0.00923        0.16289
O          0.89982       -0.64358        1.34132
C          0.98442       -2.00022        1.17245
C         -0.07348       -2.78397        1.62340
C          0.00339       -4.17670        1.54463
C          1.13752       -4.82550        1.02200
C          1.19328       -6.36900        1.02657
C          0.97961       -6.88807        2.46946
C          0.09823       -6.94148        0.10551
C          2.52764       -6.97868        0.56015
C          2.18330       -4.00145        0.55439
C          2.13954       -2.58962        0.64737
C          3.33442       -1.74418        0.24138
N          4.10496       -1.30856        1.41460
C          5.21214       -0.39506        1.06818
C          4.81349        1.08448        1.36272
C          4.61967        1.29047        2.87742
C          5.85386        0.76354        3.61728
N          6.96344        0.47839        2.68862
C          7.20575        1.66867        1.84109
C          5.99410        1.98387        0.95080
C          6.61119       -0.68186        1.80335
C          6.74567       -2.16178        2.38394
C          6.59773       -3.16024        1.21025
C          5.71006       -4.23344        1.32991
C          5.65027       -5.20954        0.33610
C          6.41341       -5.09390       -0.82142
C          7.29299       -4.03454       -0.95738
C          7.41148       -3.08673        0.06202
C          7.95361       -2.57121        3.27410
C          8.36610       -3.92516        3.33761
C          9.37319       -4.36832        4.19874
C          9.99474       -3.46940        5.04904
C          9.60320       -2.13528        5.03082
C          8.59363       -1.69509        4.16003
H         -0.58110        0.42137        0.38291
H          0.31340       -0.67739       -0.70272
H          1.08322        0.80568       -0.09634
H         -0.95157       -2.31704        2.05926
H         -0.83701       -4.75543        1.92124
H         -0.02700       -6.67909        2.84429
H          1.12383       -7.97376        2.52669
H          1.69461       -6.42503        3.16149
H          0.25031       -6.62053       -0.93167
H          0.10863       -8.03850        0.11729
H         -0.90513       -6.62653        0.40866
H          2.83978       -6.60491       -0.42033
H          3.30955       -6.77588        1.29698
H          2.46172       -8.07111        0.47530
H          3.07198       -4.44440        0.11945
H          3.97306       -2.32007       -0.43861
H          2.98354       -0.87878       -0.33354
H          3.44911       -0.86758        2.05789
H          5.41954       -0.47349       -0.00887
H          3.91069        1.37209        0.81257
H          3.71895        0.79014        3.24624
H          4.48781        2.35939        3.08974
H          5.60283       -0.13262        4.19599
H          6.18263        1.50544        4.35641
H          7.44676        2.53214        2.47401
H          8.09492        1.51254        1.21667
H          6.24275        1.82153       -0.10463
H          5.72252        3.04100        1.05971
H          7.37484       -0.63251        1.01579
H          5.88607       -2.29800        3.05723
H          5.07970       -4.32734        2.21469
H          5.01215       -6.06733        0.45948
H          6.32688       -5.84887       -1.59834
H          7.91580       -3.95646       -1.84536
H          8.16180       -2.31070       -0.03902
H          7.90026       -4.68660        2.71747
H          9.65174       -5.41857        4.20486
H         10.76919       -3.80896        5.72975
H         10.07277       -1.42766        5.70890
H          8.31647       -0.65028        4.22488
