54

C         -3.59964        0.19995        0.02659
C         -2.16171       -0.22456        0.05323
C         -1.71535       -1.49061        0.16934
C         -2.59266       -2.67824        0.15336
C         -2.49072       -3.63618        1.17207
C         -3.26656       -4.79692        1.13722
C         -4.14862       -5.01516        0.08094
C         -4.24945       -4.07883       -0.94571
C         -3.46920       -2.92072       -0.91466
O         -0.38780       -1.84399        0.31378
C          0.57921       -0.87877        0.29642
C          1.91457       -1.25714        0.47927
C          2.32485       -2.66316        0.70998
O          3.23263       -2.96715        1.46289
O          1.61872       -3.48294       -0.10597
C          2.05050       -4.85032       -0.17051
C          2.73694       -5.14875       -1.51823
N          3.98197       -4.38137       -1.67553
C          5.04199       -5.14593       -2.34106
C          6.36419       -4.37440       -2.27358
C          6.23612       -2.95475       -2.82218
C          5.02133       -2.24582       -2.23439
C          3.76993       -3.10840       -2.37838
C          2.92641       -0.28360        0.46775
C          2.60991        1.05852        0.25575
C          1.27886        1.43523        0.08364
C          0.26865        0.46508        0.11617
C         -1.14382        0.85692       -0.01624
O         -1.45229        2.03130       -0.18151
H         -4.01293        0.10576       -0.98175
H         -4.20168       -0.40158        0.71641
H         -3.72614        1.23987        0.34475
H         -1.79525       -3.48942        1.99597
H         -3.17503       -5.53368        1.93109
H         -4.74992       -5.92024        0.05265
H         -4.92651       -4.25492       -1.77776
H         -3.53908       -2.22036       -1.74381
H          2.70203       -5.12467        0.66759
H          1.14984       -5.46874       -0.08570
H          2.94534       -6.22616       -1.52878
H          2.04875       -4.95236       -2.34976
H          4.77790       -5.35950       -3.38486
H          5.19043       -6.10900       -1.83798
H          7.13750       -4.91519       -2.83043
H          6.69903       -4.32618       -1.22924
H          7.14470       -2.38392       -2.60101
H          6.13680       -2.99405       -3.91340
H          5.20045       -2.03107       -1.17272
H          4.87129       -1.28210       -2.73313
H          2.92416       -2.55151       -1.96998
H          3.54229       -3.27703       -3.43924
H          3.96541       -0.57544        0.61595
H          3.39717        1.80899        0.23502
H          1.02797        2.48409       -0.06611
