17

C         -1.48252        0.76252        0.08182
C         -1.48362       -0.76012       -0.06759
C         -0.21318       -1.43704        0.43553
O          0.86227       -1.11903       -0.43924
C          1.62300        0.00037       -0.00793
O          0.86707        1.12010        0.43089
C         -0.21660        1.43880       -0.43343
H         -1.60499        1.00161        1.14578
H         -2.35361        1.16872       -0.44491
H         -2.34985       -1.16588        0.46745
H         -1.61639       -0.99916       -1.13033
H         -0.35243       -2.52218        0.38563
H          0.01396       -1.18364        1.47788
H          2.26855        0.31132       -0.83615
H          2.27656       -0.31089        0.81390
H          0.00033        1.18542       -1.47794
H         -0.35478        2.52402       -0.38204
