39

C          0.99783       -0.17953       -0.10351
O          0.41674        0.96805        0.51500
C          0.90553        1.25056        1.74623
O          1.82475        0.63327        2.27343
C          0.30148        2.43594        2.36994
C          1.01896        3.09555        3.34132
S         -0.02670        3.96479        4.35641
C         -1.12114        4.46933        2.72895
C         -2.19915        6.35682        2.26317
C         -1.02282        3.03892        2.17664
S         -2.21748        2.10682        1.22280
O         -1.83381        2.30737       -0.15152
O         -2.20238        0.80647        1.85494
N         -3.75744        2.68840        1.40069
C         -3.96081        3.83738        2.14016
O         -5.01216        4.01955        2.73307
N         -2.86181        4.69217        2.12606
N         -2.41593        5.37510        3.87517
C         -1.03840        6.20196        3.78191
O         -0.52415        6.93852        4.79100
C          0.74071        7.57747        4.64798
N         -0.33099        6.10105        2.13378
C          0.93736        6.59536        1.65733
C         -1.41557        5.17698        0.93853
O         -1.33080        5.12423       -0.27414
H          0.59422       -0.26105       -1.11617
H          0.72906       -1.08257        0.45316
H          2.08568       -0.07734       -0.17368
H          2.02184        2.86211        3.67941
H         -3.17960        6.62522        2.80483
H         -1.70192        7.38594        2.33241
H         -2.67485        6.51207        1.23099
H         -4.47486        1.97410        1.47212
H          1.53348        6.83230        4.54679
H          0.72882        8.27665        3.81012
H          0.93214        8.14826        5.56110
H          0.88822        7.68204        1.57550
H          1.72035        6.31006        2.36126
H          1.14725        6.15884        0.67843
