30

C         -0.00841       -0.75823        0.31099
O          0.16472        0.53783        0.87808
C          0.66761        0.49210        2.14983
C         -0.15988        0.92137        3.18617
C          0.33090        0.95000        4.49728
C         -0.54229        1.38018        5.60815
O         -1.72261        1.65923        5.44129
C          1.64911        0.56933        4.77727
C          2.48311        0.15623        3.73762
C          1.99260        0.14008        2.43076
O          2.84645       -0.32771        1.42897
C          3.29369        0.63955        0.54017
O          3.13510        1.85217        0.65868
C          4.01222       -0.00691       -0.64075
C          5.30309        0.75629       -0.92497
C          4.32085       -1.49243       -0.44521
H         -0.42019       -0.62464       -0.69423
H         -0.71787       -1.35104        0.89657
H          0.93755       -1.29586        0.20443
H         -1.18040        1.23127        2.97383
H         -0.07858        1.42954        6.60791
H          2.03502        0.59184        5.79341
H          3.50813       -0.13951        3.94248
H          3.33983        0.08545       -1.50279
H          5.96821        0.74293       -0.05438
H          5.83921        0.32065       -1.77438
H          5.09411        1.80445       -1.16460
H          3.39952       -2.07409       -0.32949
H          4.85727       -1.89880       -1.30905
H          4.93535       -1.65885        0.44653
