23

C          0.87425       -0.08021       -0.04261
C          0.21175        0.88612        0.60557
C         -1.25693        1.03573        0.64700
O         -1.78239        2.03585        1.11345
O         -1.89819       -0.04211        0.12898
C         -3.32653        0.10534        0.03397
C         -4.02209       -0.14206        1.37544
C         -4.57405       -1.55074        1.53883
C         -5.62396       -1.33747        2.60342
C         -6.18379        0.02331        2.24260
O         -5.17254        0.71615        1.50010
H          0.36384       -0.85870       -0.60027
H          1.95946       -0.09890       -0.03524
H          0.75024        1.66573        1.13484
H         -3.57219        1.09426       -0.37295
H         -3.66460       -0.61763       -0.71706
H         -3.35284        0.08472        2.21457
H         -5.06246       -1.89331        0.61824
H         -3.81311       -2.28326        1.82047
H         -6.39195       -2.11529        2.62868
H         -5.15139       -1.29667        3.59189
H         -7.06393       -0.06307        1.59794
H         -6.45546        0.60874        3.12599
