31

C          0.91361        0.02945        0.07684
C          0.61076        0.51499        1.48268
O          1.10977        1.84892        1.66645
C          2.42249        1.94124        2.01000
O          3.16981        0.99215        2.20870
C          2.87036        3.38182        2.11146
C          1.95396        4.34221        2.36355
C          2.26862        5.76428        2.57385
C          1.73602        6.40980        3.69917
C          2.10885        7.72135        4.00727
C          3.01222        8.39480        3.17564
N          3.46851        9.74173        3.53722
O          2.91789       10.29687        4.49872
O          4.38404       10.23947        2.86674
C          3.50425        7.78332        2.01717
C          3.11843        6.47499        1.71472
N          4.21474        3.62660        1.92236
C          4.98588        3.85861        2.92687
O          4.61806        3.95232        4.21545
H          0.51565        0.72899       -0.66551
H          0.47523       -0.95742       -0.09631
H          1.99300       -0.03480       -0.09344
H         -0.47332        0.55595        1.63102
H          1.01261       -0.16852        2.23969
H          0.90656        4.08461        2.50522
H          1.05446        5.88701        4.36814
H          1.70893        8.18982        4.90441
H          4.19970        8.29562        1.35550
H          3.52265        5.99901        0.82189
H          6.06609        4.03244        2.80986
H          3.66402        3.84618        4.32786
