27

C          1.04282       -0.01681       -0.27214
C          0.66955       -1.48836       -0.37198
C          1.12424       -2.31693        0.83299
C          0.55046       -1.87925        2.18748
C         -0.99096       -1.91700        2.30187
C         -1.59528       -3.31367        2.04382
C         -1.14387       -4.40428        3.00681
C         -1.45557       -1.36593        3.66158
O         -1.16485        0.02207        3.77487
H          0.51285        0.47781        0.54718
H          0.77701        0.50267       -1.19837
H          2.11891        0.10530       -0.11277
H         -0.41197       -1.58276       -0.51654
H          1.13807       -1.90424       -1.27224
H          0.88160       -3.36983        0.64999
H          2.21903       -2.27014        0.89573
H          0.99049       -2.51237        2.96781
H          0.91183       -0.86698        2.40000
H         -1.39270       -1.24035        1.53655
H         -2.68908       -3.24008        2.09580
H         -1.36900       -3.63187        1.01987
H         -1.40470       -4.16174        4.04102
H         -1.63738       -5.34916        2.75619
H         -0.06476       -4.57203        2.95025
H         -2.54048       -1.47325        3.76382
H         -0.98455       -1.88728        4.50109
H         -0.21009        0.11301        3.93368
