26

C          1.01450       -0.09871        0.11145
C          0.32549        0.15268        1.44445
C          0.79701        1.43549        2.09722
C          0.21589        2.63615        1.64866
C          0.55318        3.85253        2.22686
C          1.45108        3.88059        3.28634
C          2.05527        2.69925        3.75720
C          2.97458        2.82430        4.95517
C          4.32149        3.43217        4.58975
C          1.79021        1.47198        3.10500
N          2.34249        0.27220        3.59585
H          0.80262        0.70447       -0.60279
H          0.65925       -1.03722       -0.32606
H          2.10076       -0.16582        0.22994
H         -0.75953        0.21063        1.28733
H          0.46694       -0.70719        2.10757
H         -0.51923        2.62014        0.84664
H          0.09605        4.77210        1.87306
H          1.67423        4.83379        3.76083
H          2.48428        3.45257        5.71021
H          3.12893        1.86012        5.44937
H          4.20802        4.45257        4.20770
H          4.96670        3.47822        5.47298
H          4.83136        2.84014        3.82292
H          2.37692       -0.46695        2.90281
H          3.25132        0.39618        4.02782
