36

C          0.95144       -0.05873       -0.01837
C          0.48610        0.99566        0.98076
N          0.94295        2.37349        0.68459
C          2.10607        2.66413       -0.02132
C          2.58282        3.87628       -0.34951
C          3.81525        4.03010       -1.14870
O          4.36520        5.06639       -1.47368
O          4.34448        2.85567       -1.55296
C          1.80149        5.04222        0.12214
O          2.13544        6.19871       -0.11233
C          0.57761        4.78009        0.92033
C         -0.16816        5.88078        1.36789
C         -1.31328        5.68497        2.13286
C         -1.71484        4.39267        2.48465
C         -2.91509        4.18794        3.30569
C         -4.18001        4.55798        2.83484
C         -5.28253        4.36475        3.65192
N         -5.21356        3.83645        4.89111
C         -3.98754        3.48640        5.33203
C         -2.82785        3.63579        4.58757
C         -0.94789        3.29777        2.03115
C          0.19204        3.45654        1.21658
H          0.71293        0.23569       -1.04583
H          0.45008       -1.01113        0.18444
H          2.02780       -0.24192        0.05342
H         -0.60757        0.94282        0.95270
H          0.81507        0.71394        1.98813
H          2.65401        1.78131       -0.33380
H          5.12453        3.14145       -2.07553
H          0.14272        6.89396        1.11911
H         -1.88076        6.55097        2.46876
H         -4.30991        4.98723        1.84637
H         -6.27963        4.64055        3.32032
H         -3.95801        3.07300        6.33615
H         -1.87276        3.34301        5.01120
H         -1.28364        2.30952        2.33227
