19

C          1.07864       -0.00211        0.12328
C          0.58864        1.28489        0.76802
C          1.00138        2.55137        0.00935
C          0.49535        2.65285       -1.43754
N         -0.97881        2.66085       -1.51571
C          1.06024        3.90573       -2.11599
O          1.65463        3.92436       -3.18517
O          0.79643        5.05809       -1.46866
H          0.60199       -0.17275       -0.84635
H          0.83827       -0.85721        0.76334
H          2.16336        0.01842       -0.02110
H         -0.50032        1.24537        0.88157
H          1.00190        1.34358        1.78240
H          0.65299        3.41872        0.58580
H          2.09759        2.61894        0.00680
H          0.86794        1.79936       -2.01548
H         -1.25758        2.71672       -2.49553
H         -1.34189        1.77573       -1.16761
H          1.14283        5.75357       -2.06322
