19

C          1.09144        0.00332        0.08438
O          0.50907        0.14292        1.37807
C          0.90171       -0.77742        2.31352
C          2.21765       -1.24421        2.42064
C          2.57448       -2.13588        3.44366
C          3.93104       -2.58815        3.55854
N          5.03051       -2.94661        3.64702
C          1.61410       -2.56704        4.36289
C          0.30322       -2.09846        4.26910
C         -0.04972       -1.19810        3.25460
C         -1.44358       -0.70767        3.18874
O         -2.29353       -1.07449        3.99299
H          0.60811        0.73130       -0.57469
H          0.90468       -0.99655       -0.32117
H          2.16075        0.23227        0.09151
H          2.99027       -0.89925        1.73849
H          1.87930       -3.25697        5.16268
H         -0.44094       -2.42824        4.99286
H         -1.69524        0.00113        2.38322
