34

O          1.17861        0.03006       -0.02470
C          2.40071       -0.06753        0.00219
C          3.11458       -0.81769       -1.06196
C          4.21678       -1.62723       -0.75630
C          4.88714       -2.30283       -1.77622
C          4.45477       -2.17687       -3.09629
C          3.34353       -1.38792       -3.39881
C          2.66581       -0.71395       -2.38155
C          3.17017        0.56144        1.10221
C          4.37065        1.22761        0.84030
C          5.11351        1.75903        1.89599
C          4.67236        1.63967        3.22472
C          5.49962        2.14608        4.33040
C          5.93554        3.48093        4.35876
C          6.76158        3.94616        5.38523
C          7.16487        3.08304        6.40101
C          6.73774        1.75767        6.39525
C          5.91030        1.29427        5.36927
C          3.44152        1.00322        3.46274
C          2.68792        0.47483        2.40920
H          4.55545       -1.74827        0.26971
H          5.74349       -2.93031       -1.54126
H          4.97982       -2.70208       -3.89068
H          3.00395       -1.29954       -4.42781
H          1.79748       -0.10284       -2.61798
H          4.74139        1.33649       -0.17580
H          6.05936        2.25175        1.67731
H          5.62987        4.17217        3.57580
H          7.09149        4.98173        5.38809
H          7.81299        3.44268        7.19581
H          7.05405        1.08030        7.18413
H          5.60340        0.25025        5.37338
H          3.06021        0.91487        4.47862
H          1.73950       -0.01813        2.61195
