62

C          0.87648       -0.28046       -0.34332
N          0.57521       -1.28549        0.66034
C          0.61294       -0.82839        2.04406
C          0.64191       -2.62930        0.27673
O          0.97059       -2.96678       -0.85708
C          0.30380       -3.61536        1.28047
C          1.13232       -4.60504        1.79240
C          0.41708       -5.29929        2.79571
C          0.66852       -6.32537        3.69726
N         -0.29668       -6.70393        4.56928
C         -1.50001       -6.08958        4.52847
N         -2.38507       -6.46632        5.53411
C         -3.78095       -6.40053        5.50570
C         -4.46051       -6.37755        6.71877
C         -5.85102       -6.24271        6.72974
C         -6.57551       -6.15179        5.53888
N         -7.96311       -6.00412        5.58112
C         -8.43102       -4.75209        6.22166
C         -8.62453       -3.62862        5.17462
N         -9.54167       -4.00781        4.07804
C         -9.02691       -5.23275        3.43195
C         -8.77801       -6.40252        4.41433
C         -5.80476       -6.23845        4.38203
N         -4.45189       -6.34630        4.34056
N         -1.82868       -5.10322        3.68331
C         -0.85173       -4.75342        2.83848
N         -0.94509       -3.79513        1.85712
C         -2.16687       -3.12320        1.45273
C         -3.28672       -4.05157        0.97406
C         -4.49672       -3.13143        0.96408
C         -4.32985       -2.27111        2.21182
C         -2.83018       -2.24618        2.52341
H          0.27767        0.61415       -0.14845
H          0.64878       -0.63966       -1.35072
H          1.94044       -0.03282       -0.28406
H         -0.10400       -0.01096        2.16453
H          0.37836       -1.61110        2.76557
H          1.62100       -0.45977        2.25847
H          2.16084       -4.76719        1.49451
H          1.61682       -6.84429        3.76521
H         -2.01183       -7.26335        6.02351
H         -3.91767       -6.42854        7.65660
H         -6.36940       -6.22445        7.68464
H         -9.39255       -4.95806        6.70886
H         -7.75731       -4.40494        7.01411
H         -7.65698       -3.33777        4.74678
H         -9.02943       -2.73949        5.67021
H        -10.45013       -4.22546        4.48851
H         -8.10676       -4.98268        2.89273
H         -9.74922       -5.55226        2.67206
H         -8.34176       -7.26283        3.89300
H         -9.74861       -6.74566        4.79607
H         -6.25037       -6.19760        3.39492
H         -1.91550       -2.47162        0.60636
H         -3.08037       -4.47041       -0.01595
H         -3.46119       -4.88693        1.66013
H         -5.44101       -3.68382        0.96365
H         -4.47698       -2.49715        0.06971
H         -4.87641       -2.71259        3.05316
H         -4.72932       -1.26387        2.05463
H         -2.65917       -2.60985        3.54181
H         -2.43676       -1.22458        2.48637
