23

C          1.21378       -0.00408        0.02779
C          0.62501        0.69088       -1.20032
C          1.05959       -0.04924       -2.46907
C         -0.91399        0.77313       -1.14911
C         -1.50806        1.53680        0.05166
C         -1.04250        2.99224        0.10605
C         -3.03774        1.48717       -0.01181
H          0.78526       -1.00308        0.16204
H          1.02927        0.57240        0.93912
H          2.29926       -0.11336       -0.07098
H          1.04065        1.70360       -1.25712
H          0.68632       -1.07904       -2.47716
H          0.68071        0.45653       -3.36351
H          2.15166       -0.08419       -2.54450
H         -1.26986        1.24318       -2.07600
H         -1.32107       -0.24725       -1.15028
H         -1.20575        1.04194        0.98178
H         -1.27112        3.51726       -0.82754
H         -1.53696        3.52775        0.92382
H          0.03528        3.05998        0.28139
H         -3.39363        0.45142       -0.01119
H         -3.47973        1.99095        0.85445
H         -3.41501        1.97561       -0.91672
