48

C          0.93369       -0.19494       -0.23126
C          0.70436       -0.73123        1.17363
C          1.22161        0.23781        2.19548
C          0.45934        0.77598        3.15860
C          0.94824        1.81101        4.13044
C          0.20472        3.14394        3.97872
C         -1.30466        3.08419        4.24999
C         -1.68952        2.53353        5.62705
C         -1.13305        3.32833        6.81367
C         -1.55663        4.80174        6.86213
C         -3.07183        5.03238        6.86396
C         -3.76371        4.57535        8.15424
C         -3.73692        5.63113        9.26175
C         -4.64012        6.83526        8.99579
O         -6.02799        6.46272        9.11477
C         -6.93045        6.47202        8.10820
C         -6.43277        6.35513        6.69798
O         -8.13349        6.48079        8.35205
H          0.45250        0.78006       -0.36696
H          0.52063       -0.88394       -0.97408
H          2.00320       -0.07633       -0.43670
H         -0.36681       -0.91784        1.31564
H          1.21956       -1.69039        1.29237
H          2.26832        0.52344        2.11304
H         -0.58181        0.47231        3.24596
H          0.84650        1.42367        5.14980
H          2.01945        1.99596        3.98273
H          0.66572        3.88109        4.64661
H          0.35585        3.52623        2.96064
H         -1.72223        4.08997        4.12256
H         -1.79135        2.47139        3.48182
H         -2.78254        2.48543        5.69309
H         -1.35593        1.49328        5.71512
H         -1.43663        2.82612        7.73885
H         -0.03774        3.28198        6.80491
H         -1.11154        5.26733        7.74935
H         -1.12544        5.32729        6.00175
H         -3.25432        6.09692        6.68585
H         -3.52814        4.51670        6.01273
H         -4.80155        4.30506        7.93804
H         -3.30046        3.65807        8.53137
H         -4.06446        5.14925       10.19123
H         -2.70867        5.97483        9.42015
H         -4.46359        7.57500        9.78504
H         -4.41492        7.34115        8.05654
H         -6.12524        5.32796        6.49505
H         -7.25840        6.59335        6.01868
H         -5.63605        7.06001        6.46792
