12

F          0.46076       -1.98894       -0.00244
C         -0.29561       -0.88111       -0.00043
C         -1.68151       -1.01860        0.00715
C         -2.48913        0.11914        0.00952
C         -1.90626        1.38831        0.00384
C         -0.51507        1.52174       -0.00384
C          0.29136        0.38276       -0.00569
Cl         2.00392        0.55774       -0.01407
H         -2.12126       -2.01119        0.01129
H         -3.57200        0.01739        0.01579
H         -2.53618        2.27526        0.00553
H         -0.06825        2.51258       -0.00819
