42

O          1.08420        0.31482        0.17382
C          2.27455        0.12780        0.02761
C          2.89540       -1.18837        0.00837
C          2.08975       -2.41984        0.03199
C          1.26287       -2.74981       -1.05100
C          0.49588       -3.91707       -1.02398
C          0.53905       -4.76055        0.08505
C          1.35853       -4.45260        1.17881
C          1.37150       -5.35919        2.39192
F          0.19390       -5.32650        3.06783
F          1.60419       -6.65840        2.07396
F          2.33312       -5.00963        3.29162
C          2.13623       -3.28053        1.13951
C          4.35012       -1.22558        0.01849
O          4.96589       -2.27247        0.16053
N          5.13077       -0.05304       -0.18101
C          6.48659       -0.15422       -0.23292
C          7.28792        0.93828       -0.51502
C          6.68908        2.14840       -0.78480
C          5.30410        2.24153       -0.71538
C          4.50043        1.13737       -0.34510
N          3.14554        1.25943       -0.13662
C          2.47638        2.60361       -0.02131
C          2.61901        3.16870        1.35814
C          1.62006        3.05838        2.30666
N          1.71645        3.55355        3.55512
C          2.84920        4.19956        3.86156
N          3.88414        4.36368        3.02832
C          3.73196        3.86642        1.78976
H          1.18992       -2.11889       -1.93527
H         -0.14772       -4.17183       -1.86578
H         -0.07589       -5.66203        0.09762
H          2.76984       -3.05506        1.99806
H          6.93806       -1.13089       -0.05387
H          8.37272        0.83793       -0.54593
H          7.29395        3.02017       -1.03933
H          4.88266        3.21246       -0.95889
H          2.86174        3.29442       -0.77722
H          1.41335        2.51780       -0.27920
H          0.66960        2.57023        2.09768
H          2.93548        4.62421        4.85675
H          4.57845        4.08543        1.14877
