64

C          1.13900        0.07706       -0.19225
C          0.56532        0.27147        1.21022
C          1.01279        1.62467        1.77234
C         -0.97476        0.18183        1.23456
C         -1.57685       -1.18315        0.85803
N         -1.03675       -2.30682        1.65078
C         -3.12248       -1.18279        0.95742
O         -3.81083       -1.30943       -0.05977
N         -3.76739       -1.06013        2.15056
C         -3.24669       -0.91804        3.51506
C         -3.50838        0.48481        4.08684
S         -5.25155        0.93764        4.47338
S         -6.18294        1.05082        2.65160
C         -7.98096        0.97635        3.04937
C         -8.51272       -0.43197        3.37515
N         -8.06320       -0.96391        4.68148
C         -8.44073       -0.54602        5.92891
O         -7.54504       -0.26682        6.73229
C         -9.91278       -0.53721        6.39401
N        -10.64290        0.58671        5.78019
C        -10.62953       -1.87519        6.16232
C        -10.06359       -3.05332        6.98152
C        -10.51117       -2.98958        8.44178
C        -10.51696       -4.37811        6.35943
C         -9.99690       -0.57372        3.02029
O        -10.60678       -1.62449        2.88668
O        -10.65262        0.59794        2.89739
C         -3.79403       -1.96980        4.47939
O         -3.35578       -2.20986        5.59025
O         -4.92184       -2.58212        4.05226
H          0.74105        0.82102       -0.89049
H          0.90853       -0.91786       -0.58407
H          2.22992        0.17769       -0.17965
H          0.98457       -0.50078        1.86585
H          0.63536        2.45406        1.16501
H          0.64661        1.75948        2.79608
H          2.10549        1.69228        1.80086
H         -1.30683        0.47592        2.23301
H         -1.39131        0.94105        0.55804
H         -1.34448       -1.38834       -0.19465
H         -1.48573       -3.16570        1.32383
H         -0.04904       -2.42371        1.42474
H         -4.77563       -1.12987        2.06886
H         -2.16861       -1.08364        3.49515
H         -2.96570        0.58441        5.03398
H         -3.11168        1.25545        3.41724
H         -8.20888        1.69511        3.84230
H         -8.46027        1.34498        2.13496
H         -8.03781       -1.11307        2.65244
H         -7.04916       -1.00677        4.69245
H         -9.89426       -0.33752        7.47246
H        -11.56152        0.64687        6.22236
H        -10.16744        1.45352        6.04221
H        -11.70002       -1.76708        6.38309
H        -10.56509       -2.14755        5.11091
H         -8.96788       -3.03395        6.95146
H        -11.60392       -2.98512        8.52115
H        -10.13908       -3.85604        8.99892
H        -10.13105       -2.09127        8.93647
H        -10.14588       -4.46957        5.33244
H        -10.12985       -5.23034        6.92740
H        -11.60933       -4.45285        6.33196
H        -11.59707        0.34136        2.95070
H         -5.14761       -3.18425        4.79454
