46

C          0.91340       -0.72354        0.13056
C          0.69939        0.68132        0.67252
C          1.26937        1.76572       -0.24414
C          0.47901        2.01070       -1.53711
C         -0.92716        2.59795       -1.36560
C         -1.07375        3.91869       -0.57722
C         -0.82286        5.29620       -1.29285
C         -1.54856        5.34399       -2.68175
C         -3.03025        4.93471       -2.78898
C         -4.03081        6.02226       -2.42164
C         -1.34924        6.44108       -0.36162
C         -0.95385        6.43565        1.12652
C          0.52797        6.57769        1.42215
C          0.70263        5.52655       -1.52251
O          1.55646        4.72920       -1.13028
N          1.17986        6.66584       -2.09393
O          0.38671        7.57261       -2.80205
H          0.37466       -0.88032       -0.80782
H          0.55462       -1.46399        0.85257
H          1.97715       -0.91547       -0.04519
H         -0.36523        0.84930        0.86401
H          1.20480        0.75120        1.64365
H          1.34802        2.69200        0.33260
H          2.29890        1.49820       -0.51365
H          1.06077        2.65881       -2.19996
H          0.38753        1.06375       -2.08300
H         -1.37854        2.68733       -2.35812
H         -1.53603        1.84488       -0.84853
H         -2.11208        3.93414       -0.21529
H         -0.46575        3.85325        0.33012
H         -1.47560        6.34290       -3.11936
H         -0.98401        4.69849       -3.36938
H         -3.21097        4.68570       -3.84333
H         -3.25445        4.02531       -2.22592
H         -3.70151        7.00977       -2.75924
H         -4.99793        5.81348       -2.89166
H         -4.20986        6.05717       -1.34464
H         -1.09518        7.42215       -0.77547
H         -2.43998        6.40787       -0.35535
H         -1.46928        7.28064        1.60157
H         -1.34189        5.53961        1.62341
H          0.97182        7.40215        0.85683
H          0.67625        6.78319        2.48761
H          1.07127        5.65651        1.20017
H          2.16219        6.62944       -2.35278
H          0.34431        8.33359       -2.19297
