25

C          1.43300        1.06137        0.38617
O          0.35377        0.30437        0.92297
N          0.89643       -0.70236        1.79012
C          0.40018       -1.96991        1.28387
C          0.60320       -0.37438        3.11559
O         -0.01688        0.63297        3.46231
N          0.98814       -1.24938        4.09834
C          2.05019       -2.16695        4.16740
C          3.12556       -2.17528        3.27656
C          4.15807       -3.10815        3.42367
C          4.12738       -4.03698        4.46626
Cl         5.42945       -5.16525        4.58002
C          3.06545       -4.01929        5.37423
Cl         2.95376       -5.13307        6.69099
C          2.03905       -3.07821        5.22992
H          1.01730        1.83456       -0.26579
H          2.08903        0.41803       -0.20824
H          2.00006        1.54579        1.18688
H          0.83865       -2.81176        1.82064
H         -0.68660       -2.01179        1.40861
H          0.65185       -2.05804        0.22329
H          0.48920       -1.06452        4.96122
H          3.20541       -1.44496        2.47623
H          4.99022       -3.09725        2.72299
H          1.21664       -3.07764        5.94217
