20

C          1.13009        0.06506        0.07468
C          0.51911        1.43104       -0.00600
O         -0.17324        1.81370       -0.93712
O          0.85595        2.14844        1.09812
C          0.38837        3.51215        1.26578
C          0.93422        4.42722        0.16397
C         -1.14073        3.56943        1.35433
C          0.97319        3.96605        2.61228
H          0.85568       -0.50741       -0.81618
H          0.75109       -0.45953        0.95529
H          2.21915        0.14736        0.11310
H          0.52352        4.17705       -0.81857
H          0.69303        5.47705        0.36276
H          2.02275        4.32999        0.08258
H         -1.51224        2.86863        2.11053
H         -1.48695        4.57584        1.61336
H         -1.61749        3.29196        0.40968
H          0.63471        3.31245        3.42476
H          2.06774        3.90486        2.60266
H          0.68648        4.99498        2.85398
