26

O          1.68194        0.36781        1.08985
C          2.65670        0.24739        0.36316
O          3.26759        1.28072       -0.27086
C          4.46674        0.83096       -0.91936
C          5.65657        1.72241       -0.50191
O          6.85185        1.24100       -1.13055
C          5.41977        3.21873       -0.82796
O          4.37786        3.76169       -0.01170
C          6.68979        4.05391       -0.59548
O          7.71369        3.74331       -1.53493
C          4.64979       -0.64491       -0.55489
O          5.70389       -0.84272        0.39704
C          3.31103       -1.06892        0.01931
O          3.49794       -1.94426        1.12403
H          4.29641        0.91217       -2.00044
H          5.79064        1.65439        0.58614
H          7.05069        0.38829       -0.68432
H          5.12738        3.32043       -1.87980
H          3.58484        3.20243       -0.11694
H          6.46338        5.12207       -0.67962
H          7.07998        3.89432        0.41648
H          7.78060        2.76468       -1.54889
H          4.91360       -1.23987       -1.43574
H          5.39457       -1.56999        0.98314
H          2.69462       -1.56177       -0.73954
H          2.67132       -1.90542        1.64789
