32

C          0.76175        0.00075       -0.12369
C          0.63462        1.45858        0.30159
N          1.09666        2.39571       -0.72415
C          0.07699        3.20917       -1.39733
C         -0.08925        4.58898       -0.77557
C          2.47056        2.46146       -0.95625
O          3.26696        1.68664       -0.43587
S          3.02827        3.71135       -2.05746
C          4.81868        3.61120       -1.81057
C          5.28550        4.03428       -0.43712
C          5.78081        3.07379        0.45987
C          6.19129        3.43651        1.74299
C          6.12140        4.76898        2.13611
Cl         6.61925        5.21748        3.72086
C          5.64656        5.73996        1.25599
C          5.22881        5.37452       -0.02732
H          0.29147       -0.17254       -1.09631
H          0.28754       -0.65268        0.61522
H          1.80954       -0.30614       -0.20195
H         -0.41045        1.67690        0.54872
H          1.22139        1.62651        1.21243
H          0.32836        3.30358       -2.45846
H         -0.87862        2.67284       -1.35928
H          0.81596        5.19462       -0.87550
H         -0.90239        5.12905       -1.27121
H         -0.32147        4.51852        0.29135
H          5.16293        2.59898       -2.05074
H          5.29140        4.26920       -2.54943
H          5.82067        2.02427        0.17060
H          6.55117        2.67291        2.42676
H          5.59322        6.78023        1.56478
H          4.85157        6.14062       -0.70158
