32

C          0.71661        2.43232        0.02789
C         -0.67369        2.43001       -0.00948
C         -1.38966        1.22354       -0.02051
C         -0.70206        0.00021       -0.01825
C         -1.39040       -1.22268       -0.02284
C         -0.67514       -2.42956       -0.01638
C          0.71536       -2.43275        0.01206
C          1.42152       -1.22650        0.02669
C          0.72653       -0.00031        0.01046
C          1.42161        1.22551        0.04165
C          2.92403        1.26486        0.18226
C          3.60244        0.00557       -0.34169
C          2.92602       -1.27090        0.14328
C         -2.89084       -1.30657       -0.01344
C         -3.67125        0.00107       -0.00517
C         -2.89010        1.30827       -0.01539
H          1.24575        3.38131        0.05919
H         -1.20364        3.37996       -0.01240
H         -1.20564       -3.37920       -0.01856
H          1.24422       -3.38216        0.03492
H          3.16491        1.40702        1.24268
H          3.32692        2.12597       -0.36535
H          3.59667        0.02279       -1.43874
H          4.65552        0.00137       -0.03376
H          3.31814       -2.11060       -0.44426
H          3.18316       -1.45507        1.19325
H         -3.19096       -1.88609        0.87025
H         -3.20773       -1.89133       -0.88696
H         -4.33998        0.00184        0.86718
H         -4.36224        0.00068       -0.85948
H         -3.19231        1.89046        0.86583
H         -3.20431        1.89070       -0.89143
