26

C          0.94841       -0.13458        0.17808
C          0.50578        1.30078       -0.00566
C         -0.72515        1.54505       -0.50859
O         -1.61033        0.54999       -0.88274
C         -1.19304        2.95806       -0.63854
O         -2.31287        3.19345       -1.08756
C         -0.28520        4.03462       -0.20287
C          0.90878        3.67226        0.27838
N          1.35566        2.35972        0.39062
C          2.66618        2.12946        0.90124
C          2.94032        2.30747        2.26495
C          4.21754        2.05366        2.76953
C          5.23451        1.62999        1.91466
C          4.98149        1.47358        0.55298
C          3.70581        1.72964        0.04765
H          0.40166       -0.82199       -0.47633
H          0.77961       -0.44658        1.21405
H          2.00274       -0.28747       -0.06141
H         -2.41434        1.02897       -1.17638
H         -0.61729        5.05831       -0.29277
H          1.62227        4.42587        0.60333
H          2.14975        2.62413        2.94042
H          4.41630        2.17778        3.83086
H          6.22525        1.42052        2.31021
H          5.77402        1.14651       -0.11498
H          3.51484        1.60639       -1.01564
