35

O          1.02816        0.44295       -0.44185
C          2.23468        0.34198       -0.21753
N          2.87602        1.17351        0.68961
C          4.26032        1.42183        0.75964
C          4.87832        1.44674        2.01237
C          6.27473        1.44268        2.09788
C          7.05337        1.46695        0.93751
C          6.42497        1.52702       -0.31203
N          7.22892        1.54122       -1.53968
O          8.46198        1.52676       -1.41881
O          6.62822        1.56966       -2.62283
C          5.03007        1.52320       -0.40470
C          2.99030       -0.76317       -0.87525
C          4.02807       -1.40328       -0.18265
C          4.85650       -2.33153       -0.81246
C          5.99267       -2.82332       -0.15480
C          6.80291       -3.77481       -0.76557
C          6.47095       -4.25354       -2.02955
C          5.35842       -3.74296       -2.70759
C          4.54953       -2.75464       -2.12183
C          3.44831       -2.17646       -2.78647
C          2.68187       -1.18335       -2.16935
O          1.64185       -0.66172       -2.88972
H          2.27667        1.52325        1.42880
H          4.29275        1.36157        2.92516
H          6.75879        1.38192        3.07090
H          8.13796        1.43074        1.02148
H          4.54240        1.56167       -1.37713
H          4.22219       -1.15549        0.85685
H          6.26559       -2.45292        0.83132
H          7.68676       -4.14442       -0.25225
H          7.08557       -5.02050       -2.49362
H          5.12814       -4.12355       -3.70008
H          3.19346       -2.48597       -3.79774
H          1.07476       -0.14432       -2.27742
