22

C          0.98068       -0.01549        0.09348
O          0.62839        0.70167        1.27176
C          0.97377        0.04249        2.40117
C          0.07032       -0.25937        3.40325
C         -1.34370       -0.02826        3.51348
O         -2.09732        0.48513        2.69780
O         -1.84260       -0.46569        4.69423
O          0.73228       -0.90479        4.41911
C          2.04618       -0.97101        4.07588
C          3.05013       -1.53605        4.85984
C          4.34965       -1.48335        4.34718
C          4.61299       -0.88565        3.11307
C          3.58009       -0.32657        2.34628
C          2.26043       -0.38204        2.83506
H          0.47184        0.45807       -0.75165
H          0.65243       -1.05998        0.14326
H          2.05590        0.03953       -0.09623
H         -2.79280       -0.24397        4.63143
H          2.82859       -1.98344        5.82130
H          5.16881       -1.90689        4.92471
H          5.63522       -0.84657        2.74200
H          3.80676        0.14966        1.39769
