86

C          1.14825        0.13787       -0.61595
C          0.98493       -1.28223       -0.09630
C          1.39997       -1.44497        1.36820
C          0.62757       -0.57716        2.36861
C         -0.89071       -0.79224        2.38875
C         -1.34897       -2.21684        2.72546
C         -0.83241       -2.77768        4.05563
C         -1.31771       -2.05027        5.31460
C         -2.78771       -2.26969        5.68464
C         -3.23713       -3.72414        5.88400
C         -2.43466       -4.65296        6.81573
C         -2.06959       -4.21597        8.24595
C         -3.13833       -4.22892        9.36234
C         -3.89725       -5.55186        9.69841
C         -4.95394       -5.51830       10.88515
C         -6.51955       -5.63675       10.62085
O         -7.33643       -4.51699       11.06534
C         -8.33302       -3.92781       10.31739
C         -9.24313       -3.12951       11.02563
C        -10.24841       -2.37916       10.37266
C        -10.40796       -2.44555        8.99253
C         -9.51788       -3.21104        8.26647
C         -8.46605       -3.87392        8.93187
C         -7.37401       -4.18289        8.04568
O         -7.54775       -5.01462        7.15011
C         -6.11159       -3.41979        8.18627
C         -5.79773       -2.36069        9.22454
O         -5.68354       -2.80810       10.48042
N         -5.41325       -1.17912        8.87320
C         -4.70318       -0.43315        9.76425
N         -4.30956       -0.75658       10.99270
C         -3.40390        0.17968       11.46885
C         -2.73318        0.10823       12.75971
C         -3.17658        0.91984       13.81293
C         -2.41241        1.05355       14.97618
C         -1.20489        0.36898       15.10097
C         -0.77749       -0.47720       14.07751
C         -1.54119       -0.61377       12.91078
C         -3.15166        1.23146       10.61410
S         -4.07302        1.06805        9.18917
H          0.47957        0.83384       -0.10102
H          0.90797        0.17863       -1.68297
H          2.17763        0.48656       -0.48592
H         -0.05159       -1.60694       -0.23755
H          1.60347       -1.95046       -0.70776
H          1.30269       -2.50132        1.64507
H          2.46770       -1.20828        1.46003
H          1.03552       -0.75350        3.37072
H          0.82716        0.48066        2.16018
H         -1.33162       -0.09004        3.10554
H         -1.30889       -0.51399        1.41364
H         -2.44473       -2.24572        2.71334
H         -1.02582       -2.89025        1.92182
H         -1.10326       -3.83698        4.11196
H          0.26329       -2.76128        4.05144
H         -0.69613       -2.36977        6.15761
H         -1.14073       -0.97274        5.21039
H         -3.00935       -1.69897        6.59435
H         -3.41487       -1.82305        4.89969
H         -4.27900       -3.71758        6.20040
H         -3.26213       -4.19867        4.89263
H         -2.95624       -5.61534        6.85902
H         -1.48662       -4.85690        6.30099
H         -1.24028       -4.84859        8.58232
H         -1.66260       -3.19698        8.19554
H         -2.66204       -3.86972       10.28331
H         -3.80129       -3.43304        9.08005
H         -4.34389       -6.00389        8.80825
H         -3.10634       -6.24785       10.01386
H         -4.72200       -6.44241       11.43884
H         -4.72294       -4.71404       11.59073
H         -6.76170       -6.00626        9.62466
H         -6.85221       -6.43324       11.30285
H         -9.14681       -3.03279       12.10415
H        -10.89798       -1.71993       10.94430
H        -11.16967       -1.86380        8.47838
H         -9.57128       -3.22152        7.17704
H         -5.40554       -4.23007        8.32113
H         -5.90257       -2.97678        7.21277
H         -5.29937       -2.14364       11.08772
H         -4.10041        1.48526       13.71719
H         -2.74640        1.71385       15.77298
H         -0.59420        0.50158       15.99168
H          0.16666       -1.00835       14.17869
H         -1.17340       -1.25033       12.10936
H         -2.48191        2.06586       10.75883
