14

C          0.92920        0.07915        0.11387
C          0.43098        1.29207       -0.65640
C          0.87772        1.31226       -2.12323
C          0.40270        0.12949       -2.97029
Cl        -1.37451        0.04754       -3.06089
Cl         1.06281        0.26787       -4.62433
H          0.47531       -0.84505       -0.25536
H          0.66920        0.17466        1.17305
H          2.01719       -0.01418        0.03965
H         -0.66055        1.34757       -0.58407
H          0.81780        2.19525       -0.16866
H          0.52942        2.25204       -2.57212
H          1.97491        1.35117       -2.14546
H          0.76045       -0.82122       -2.56726
