46

C          1.00775       -1.29121       -0.05894
C          0.04477       -0.12916       -0.12520
C          0.75708        1.20635       -0.07371
C         -1.18121       -0.31279       -1.00373
C         -1.72298        0.76796       -1.84581
C         -2.40798        0.65358       -2.99534
Cl        -2.97094        2.07040       -3.81257
Cl        -2.77419       -0.86929       -3.72076
C         -1.34617       -0.19632        0.49814
C         -1.99530       -1.33598        1.19340
O         -3.19728       -1.31858        1.41387
O         -1.12657       -2.29842        1.58430
C         -1.66676       -3.34084        2.41103
C         -1.21871       -3.15086        3.84105
C         -0.99099       -4.24863        4.67776
C         -0.62641       -4.05342        6.01290
C         -0.51305       -2.76065        6.53220
C         -0.76089       -1.65547        5.72009
O         -0.64249       -0.41384        6.31596
C         -1.02916        0.68499        5.58310
C         -0.04459        1.57927        5.16481
C         -0.39753        2.67290        4.37318
C         -1.73133        2.87244        4.01121
C         -2.71871        1.99417        4.46068
C         -2.37198        0.90928        5.26599
C         -1.09287       -1.86133        4.37920
H          0.52425       -2.25801       -0.22533
H          1.77597       -1.18373       -0.83272
H          1.50830       -1.31580        0.91494
H          1.25846        1.40358       -1.02726
H          0.07879        2.03988        0.13525
H          1.51670        1.20541        0.71571
H         -1.31155       -1.31058       -1.41965
H         -1.56566        1.78139       -1.48080
H         -1.71955        0.74647        0.89311
H         -2.76094       -3.39803        2.37044
H         -1.27426       -4.28466        2.01746
H         -1.09427       -5.26280        4.29780
H         -0.43844       -4.91141        6.65362
H         -0.23644       -2.61791        7.57318
H          0.99338        1.41267        5.43752
H          0.36732        3.36671        4.03429
H         -2.00351        3.71753        3.38366
H         -3.75702        2.14936        4.17819
H         -3.13850        0.21940        5.60850
H         -1.26685       -1.00875        3.73253
