33

N          1.00144       -0.06933       -0.05750
C          0.39903       -0.49089       -1.22217
N          0.82093       -1.64662       -1.77987
C          0.19347       -2.10072       -2.89009
N         -0.85030       -1.55054       -3.55445
C         -1.20943       -0.37578       -3.00545
C         -0.62693        0.17317       -1.86378
N         -1.28483        1.31873       -1.63563
O         -1.15029        2.19920       -0.74903
C         -2.21607        1.47849       -2.53494
N         -2.23973        0.44475       -3.42974
C         -3.15055        0.24171       -4.53170
O         -2.41139        0.14936       -5.76194
C         -3.33304       -0.41872       -6.71238
C         -2.59815       -0.98570       -7.92406
O         -3.49912       -1.66651       -8.79161
C         -4.17013       -1.44126       -5.93764
O         -3.67540       -2.77270       -6.13213
C         -4.06612       -0.99770       -4.47394
O         -3.61346       -2.10536       -3.68360
H          0.87663        0.90061        0.20985
H          1.89231       -0.51017        0.13052
H          0.57395       -3.03488       -3.29487
H         -2.88978        2.32250       -2.56906
H         -3.76907        1.14554       -4.61376
H         -3.99593        0.39281       -7.04156
H         -2.12134       -0.17655       -8.48623
H         -1.79717       -1.67248       -7.62765
H         -3.74690       -2.48754       -8.31783
H         -5.20738       -1.43072       -6.28880
H         -3.45430       -3.11786       -5.24292
H         -5.04488       -0.70512       -4.07831
H         -2.63134       -2.11015       -3.68349
