32

N          0.99113        0.16384        0.13367
C          0.33523       -0.83838        0.87379
C          0.74251       -1.03536        2.19607
C          0.04791       -1.90412        3.03358
C         -1.12585       -2.52728        2.60172
N         -1.69231       -3.50390        3.44336
C         -1.56018       -2.32277        1.27021
C         -0.84002       -1.48056        0.41549
C         -1.26940       -1.33222       -0.99767
O         -0.53788       -0.74745       -1.79763
C         -2.52472       -1.96309       -1.47703
C         -2.94718       -1.78100       -2.81574
N         -2.38150       -0.81180       -3.66603
C         -4.10929       -2.42298       -3.25216
C         -4.80618       -3.28512       -2.40977
C         -4.41247       -3.45852       -1.08031
N         -5.06938       -4.45376       -0.33140
C         -3.24622       -2.80176       -0.61980
C         -2.82647       -2.93419        0.79711
O         -3.57164       -3.49218        1.60360
H          0.78450        0.09036       -0.87047
H          1.98576        0.24387        0.31511
H          1.61733       -0.51738        2.58247
H          0.42578       -2.08354        4.03752
H         -2.65174       -3.73813        3.15850
H         -1.62801       -3.29831        4.43449
H         -1.43111       -0.55569       -3.37014
H         -2.42804       -1.03455       -4.65439
H         -4.47680       -2.26235       -4.26312
H         -5.67206       -3.81636       -2.79825
H         -6.06115       -4.54373       -0.52391
H         -4.87756       -4.35910        0.67396
