51

C          0.97607       -0.44083       -0.11740
C          0.61676       -0.93562       -1.50060
C         -0.19790       -2.14775       -1.50494
C         -1.06259       -2.54174       -2.45425
C         -1.86925       -3.75467       -2.32907
C         -2.89137       -3.82710       -1.44065
C         -3.36187       -2.68289       -0.57227
C         -3.70702       -5.08495       -1.23483
C         -3.11392       -6.33288       -1.87476
C         -2.59362       -6.01748       -3.26836
C         -1.48377       -4.93054       -3.25211
C         -1.28348       -4.48348       -4.71814
C         -0.16358       -5.56189       -2.75484
C          1.02203       -0.30884       -2.62170
C          1.93186        0.82277       -2.64905
C          1.97006        1.72390       -3.63661
C          2.90638        2.83548       -3.76253
C          3.26479        3.19978       -5.18520
C          3.43319        3.57470       -2.76601
C          3.20318        3.50680       -1.29209
O          4.33353        2.89741       -0.68671
H          0.35053       -0.89425        0.65987
H          0.82365        0.64186       -0.03808
H          2.02050       -0.67123        0.11553
H         -0.09588       -2.77403       -0.61779
H         -1.20722       -1.96832       -3.36528
H         -4.44505       -2.55582       -0.67681
H         -3.13948       -2.89381        0.47882
H         -2.91145       -1.72030       -0.82675
H         -3.83045       -5.27528       -0.16158
H         -4.71036       -4.91314       -1.64533
H         -3.88008       -7.11510       -1.92895
H         -2.30876       -6.73028       -1.24613
H         -3.43785       -5.68163       -3.88666
H         -2.22120       -6.93899       -3.73365
H         -0.41551       -3.82452       -4.83218
H         -1.11570       -5.34795       -5.37183
H         -2.16350       -3.94900       -5.09424
H          0.08951       -6.45582       -3.33693
H          0.67802       -4.86642       -2.85133
H         -0.22270       -5.85756       -1.70169
H          0.70591       -0.67204       -3.59791
H          2.62772        0.88437       -1.81732
H          1.26459        1.62217       -4.46302
H          2.83718        4.17535       -5.44363
H          4.35218        3.25123       -5.30975
H          2.89107        2.47149       -5.91289
H          4.12268        4.37407       -3.04191
H          3.10593        4.51830       -0.88560
H          2.30097        2.96171       -1.00815
H          4.57783        2.13729       -1.24243
