28

C          0.88684        0.05115        0.17562
C          0.55957        1.49168       -0.20215
C          1.07766        2.02421       -1.57782
C          0.57007        1.13516       -2.74410
C          0.36028        3.38590       -1.79241
C          2.62594        2.10476       -1.59012
C          3.37266        0.91197       -1.73645
C          4.77135        0.89320       -1.73401
C          5.47890        2.07686       -1.59530
C          4.78408        3.27258       -1.45726
C          3.38039        3.28474       -1.45025
O          2.76964        4.49669       -1.29548
H          0.58109       -0.65751       -0.59834
H          0.35014       -0.21823        1.09199
H          1.95144       -0.08278        0.38271
H         -0.53557        1.57931       -0.18316
H          0.92958        2.14339        0.60080
H         -0.52551        1.08838       -2.75592
H          0.89454        1.54135       -3.71018
H          0.92372        0.10222       -2.69567
H          0.48999        4.05783       -0.93688
H          0.71050        3.89119       -2.69951
H         -0.72332        3.24864       -1.89970
H          2.87197       -0.04758       -1.84026
H          5.30016       -0.05085       -1.83569
H          6.56498        2.06863       -1.59027
H          5.35152        4.19222       -1.34620
H          3.43791        5.19969       -1.32489
