21

C          0.99359        0.02565       -0.12929
C          0.48011        0.33750        1.28091
C          1.11446        1.64877        1.76945
C         -1.04675        0.30897        1.31529
C         -1.78760        1.50327        1.20915
C         -3.18584        1.49782        1.22233
C         -3.87206        0.29530        1.32563
Cl        -5.59225        0.28869        1.33094
C         -3.17432       -0.90290        1.42258
C         -1.77318       -0.89748        1.42164
Br        -0.93299       -2.59963        1.57852
H          0.65810        0.77889       -0.85098
H          0.64279       -0.94766       -0.48606
H          2.08883        0.00549       -0.14628
H          0.85272       -0.43016        1.96955
H          0.93596        2.47578        1.07328
H          0.72664        1.93628        2.75256
H          2.20069        1.53503        1.85997
H         -1.29138        2.46580        1.11281
H         -3.72823        2.43732        1.14774
H         -3.72162       -1.83861        1.49904
