30

C         -2.57374       -0.65136       -0.47858
C         -1.09307       -0.49909       -0.43730
C         -0.45168        0.61200       -0.93906
N          0.86454        0.84342       -0.78582
C          1.55857       -0.08943       -0.13354
N          2.73926        0.28417        0.49650
S          3.69585        1.47936       -0.12033
O          4.87312        1.50616        0.72393
O          3.82849        1.29853       -1.55182
C          2.85539        3.02039        0.17345
C          1.73609        3.10894        1.00346
C          1.02379        4.30959        1.07706
C          1.41875        5.42212        0.32915
N          0.74779        6.64200        0.47567
C          2.61474        5.35713       -0.39144
C          3.31648        4.15350       -0.50080
N          1.05058       -1.20847        0.39348
C         -0.27165       -1.39676        0.21240
H         -3.01498       -0.20124        0.41751
H         -2.99711       -0.15800       -1.35923
H         -2.86092       -1.70654       -0.51777
H         -0.99391        1.39940       -1.45634
H          3.21986       -0.46237        0.98187
H          1.38306        2.25355        1.57088
H          0.14216        4.36156        1.71052
H          0.89840        7.28148       -0.29888
H         -0.23846        6.53672        0.69343
H          2.99738        6.23894       -0.89849
H          4.21538        4.10436       -1.11126
H         -0.66738       -2.30512        0.65939
