76

O          0.14635       -0.02486       -0.33483
C          0.26774        1.31407       -0.81032
C          1.02220        2.20913        0.18404
N          2.47269        2.13041        0.00940
C          3.19852        3.23022       -0.62525
C          3.84517        4.21692        0.35266
O          5.18836        3.84376        0.64437
C          3.14477        1.12068        0.64709
N          2.71157       -0.13148        0.47582
C          3.33811       -1.11420        1.15421
N          2.96038       -2.43156        0.89936
C          2.07060       -3.05526        1.86994
C          2.43405       -4.53891        1.91057
C          2.36247       -5.17031        0.51797
C          3.13832       -4.35324       -0.52407
C          2.77198       -2.86297       -0.47614
C          4.37167       -0.88853        2.06672
N          4.95052       -1.88103        2.77887
C          5.99606       -1.61776        3.56410
N          6.50573       -2.68223        4.27662
C          7.70976       -2.52573        5.09133
C          7.50147       -3.11241        6.49775
O          7.56944       -4.54096        6.47725
C          6.07444       -4.04231        3.90934
C          4.86507       -4.50990        4.74723
O          3.76161       -3.60574        4.71952
N          6.46559       -0.37490        3.70906
C          5.84534        0.61860        3.02091
N          6.29861        1.94854        3.16526
C          5.62624        2.66677        4.24902
C          5.80191        4.16622        4.00455
C          7.26471        4.55393        3.76268
C          7.99063        3.60621        2.80056
C          7.74332        2.13587        3.15105
C          4.76391        0.42431        2.14772
N          4.17460        1.42246        1.43455
H          1.05771       -0.29922       -0.08632
H          0.75777        1.29255       -1.78885
H         -0.75024        1.69189       -0.94366
H          0.70123        3.24575        0.02422
H          0.74840        1.95392        1.21613
H          3.95493        2.81891       -1.30487
H          2.49269        3.78996       -1.25131
H          3.90037        5.20629       -0.11258
H          3.28651        4.31310        1.28902
H          5.13316        2.98375        1.12028
H          1.02438       -2.92521        1.56539
H          2.16631       -2.61628        2.86834
H          1.78071       -5.07217        2.60852
H          3.46040       -4.64784        2.27674
H          2.76683       -6.18839        0.56094
H          1.31384       -5.24977        0.21139
H          4.21310       -4.46120       -0.32278
H          2.95827       -4.75716       -1.52563
H          3.42906       -2.31742       -1.16423
H          1.73612       -2.70859       -0.80049
H          8.54726       -3.02897        4.59311
H          7.98478       -1.47294        5.21317
H          8.28826       -2.76290        7.17192
H          6.52937       -2.81152        6.90390
H          7.06782       -4.85604        7.24951
H          5.82672       -4.10311        2.84155
H          6.89430       -4.75791        4.04213
H          4.50979       -5.47367        4.36880
H          5.13257       -4.64986        5.79585
H          4.00740       -2.90675        4.07978
H          6.05561        2.38960        5.22091
H          4.55357        2.43918        4.28674
H          5.40294        4.73265        4.85355
H          5.20622        4.45814        3.13318
H          7.30745        5.57638        3.36841
H          7.79400        4.55996        4.72204
H          7.63559        3.79539        1.77957
H          9.06460        3.82045        2.80576
H          8.21796        1.50610        2.38889
H          8.19027        1.89072        4.12275
