58

C          1.05538        0.40747        0.42172
C          0.92132        0.83196       -1.03254
C          1.37983       -0.24558       -2.01904
C          0.60226       -1.56504       -1.94766
C         -0.90933       -1.43234       -2.15860
C         -1.30943       -0.86486       -3.52359
C         -0.95585       -1.76751       -4.71018
C         -1.66221       -3.12806       -4.70685
C         -3.19267       -3.05243       -4.65793
C         -3.83307       -2.23535       -5.78698
C         -3.48245       -2.70336       -7.20363
C         -3.86376       -4.15394       -7.50033
C         -5.37883       -4.37320       -7.59984
C         -5.87984       -4.52561       -9.03661
C         -5.37205       -5.76502       -9.77648
C         -6.17408       -7.01444       -9.47054
O         -7.17703       -7.29597      -10.12120
N         -5.81343       -7.84353       -8.45228
C         -4.64229       -7.82296       -7.58651
C         -5.04090       -7.87763       -6.10936
O         -5.58982       -9.15247       -5.78695
H          0.39592       -0.43270        0.65867
H          0.78449        1.23632        1.08296
H          2.08494        0.11346        0.64873
H         -0.11513        1.12336       -1.23525
H          1.52858        1.73066       -1.19272
H          1.32188        0.16100       -3.03558
H          2.44133       -0.45966       -1.84377
H          1.01967       -2.25732       -2.68809
H          0.77844       -2.03882       -0.97500
H         -1.37192       -2.41505       -2.01279
H         -1.33565       -0.79511       -1.37569
H         -2.38736       -0.66801       -3.51703
H         -0.84179        0.11417       -3.67473
H         -1.19790       -1.23390       -5.63667
H          0.12690       -1.93281       -4.74563
H         -1.34960       -3.68717       -5.59678
H         -1.31339       -3.72323       -3.85481
H         -3.59590       -4.07173       -4.66236
H         -3.50892       -2.62741       -3.69807
H         -4.91969       -2.24867       -5.64822
H         -3.54038       -1.18333       -5.69035
H         -3.97198       -2.04358       -7.93012
H         -2.40524       -2.58531       -7.36954
H         -3.36193       -4.44615       -8.42809
H         -3.45397       -4.81304       -6.72763
H         -5.65952       -5.25833       -7.02715
H         -5.92263       -3.54433       -7.13429
H         -6.97682       -4.53511       -9.01967
H         -5.58363       -3.63160       -9.59933
H         -5.49364       -5.58875      -10.85385
H         -4.30418       -5.94538       -9.64103
H         -6.38611       -8.67897       -8.42987
H         -4.05277       -8.70775       -7.84772
H         -4.03502       -6.94041       -7.78083
H         -4.16093       -7.72385       -5.47786
H         -5.78297       -7.11517       -5.85309
H         -6.49137       -9.17391       -6.15190
