24

C          1.06714        0.00271        0.08541
C          0.32661       -1.10788       -0.04061
C         -1.17017       -1.14187       -0.06150
O         -1.58507       -1.70603       -1.29525
C         -1.67684       -2.01370        1.07587
C         -2.11146       -2.76155        2.05150
C         -2.61813       -3.63338        3.18887
C         -1.62927       -4.78371        3.41402
C         -2.72819       -2.78182        4.45947
C         -3.99545       -4.19329        2.81315
H          0.61548        0.98431        0.19182
H          2.15167       -0.05368        0.09494
H          0.82913       -2.06840       -0.13740
H         -1.60817       -0.14183        0.02816
H         -1.15835       -1.17909       -1.98998
H         -0.63191       -4.40720        3.67032
H         -1.96042       -5.43694        4.22908
H         -1.52277       -5.39951        2.51311
H         -3.42008       -1.94307        4.31815
H         -3.09136       -3.37686        5.30489
H         -1.75671       -2.35822        4.74047
H         -4.71723       -3.38784        2.63300
H         -3.94466       -4.79515        1.89808
H         -4.39546       -4.82937        3.61070
