25

C          2.48813        1.26888       -0.00298
C          1.28610        0.36208       -0.00540
C          0.03190        1.00729       -0.03007
C         -1.15090        0.28009       -0.02748
O         -2.32532        0.97133       -0.05178
C         -1.12387       -1.10283       -0.00032
C          0.10809       -1.75821        0.03301
C          1.33206       -1.04973        0.03904
C          2.63080       -1.84817        0.09147
C          2.72499       -2.69437        1.36639
C          2.80363       -2.72170       -1.15604
H          2.41433        1.98162       -0.83237
H          2.52729        1.82758        0.93821
H          3.44090        0.75577       -0.12626
H         -0.02293        2.09379       -0.05102
H         -3.05728        0.33345       -0.03643
H         -2.03758       -1.68780       -0.00175
H          0.10638       -2.84631        0.05661
H          3.49111       -1.17754        0.11758
H          1.95796       -3.47501        1.40391
H          3.70084       -3.18872        1.42665
H          2.61109       -2.06864        2.25862
H          2.75000       -2.11630       -2.06774
H          3.77833       -3.22165       -1.14281
H          2.03562       -3.49956       -1.22528
