14

C          0.62966       -0.04180        0.27461
C          0.46876       -1.48916       -0.11120
O         -0.06848       -2.29158        0.65628
C          1.04819       -1.94828       -1.42347
C          0.58412       -1.18134       -2.62928
N          1.12358       -1.60486       -3.81086
O         -0.19310       -0.23664       -2.60486
H          0.61676        0.04365        1.36492
H         -0.18927        0.54899       -0.14032
H          1.59078        0.33732       -0.08255
H          2.13917       -1.88236       -1.35155
H          0.77769       -3.00124       -1.56524
H          0.79798       -1.15162       -4.65612
H          1.64416       -2.46669       -3.90193
