17

C          0.90000        0.08456       -0.02464
C          0.43220       -0.90226       -1.10004
C          0.92677       -2.31481       -0.76855
C         -1.08858       -0.92511       -1.07886
O         -1.79457       -0.52594       -2.00221
C          0.93530       -0.49396       -2.49367
O          0.54535        0.83418       -2.82781
H          0.56139       -0.22449        0.97132
H          0.50025        1.08993       -0.19871
H          1.99309        0.15337       -0.00061
H          0.56764       -2.64412        0.21343
H          0.56527       -3.04232       -1.50466
H          2.02135       -2.35979       -0.75809
H         -1.55012       -1.30177       -0.14862
H          2.02965       -0.52866       -2.53128
H          0.55747       -1.16502       -3.27381
H         -0.43054        0.81463       -2.91691
