26

C          0.93760       -0.03073       -0.02811
O          0.30130       -1.07702       -0.75346
C          0.79613       -1.30546       -2.00851
C         -0.11083       -1.84515       -2.91715
C          0.27591       -2.10423       -4.23231
C          1.58601       -1.83891       -4.65405
C          2.52148       -1.34833       -3.72598
C          2.11306       -1.07220       -2.40852
C          3.94789       -1.05440       -4.12554
C          4.35504       -1.70913       -5.44457
C          3.28278       -1.48590       -6.50280
C          1.97326       -2.14832       -6.07932
H          0.31898        0.19192        0.84668
H          1.00996        0.88419       -0.62676
H          1.92213       -0.34403        0.33250
H         -1.13087       -2.05160       -2.60340
H         -0.45298       -2.51289       -4.92797
H          2.84651       -0.68951       -1.70619
H          4.63212       -1.39530       -3.33925
H          4.05844        0.03369       -4.21266
H          4.50555       -2.78612       -5.29657
H          5.31194       -1.29471       -5.78111
H          3.12809       -0.40905       -6.64768
H          3.60841       -1.89621       -7.46517
H          1.17815       -1.82123       -6.76003
H          2.06821       -3.23685       -6.17822
