38

C          0.63652       -0.12561       -0.87978
N          0.05028        1.15883       -1.22448
C         -1.38572        1.18359       -0.98708
C          0.76953        2.32330       -0.69294
C          0.45858        2.83915        0.72519
C          0.91311        1.96778        1.89937
N          2.36855        1.92306        2.00415
C          2.84938        1.03906        3.06595
C          2.82797       -0.46431        2.75513
C          3.43029       -0.93572        1.42017
N          4.89518       -1.04955        1.31288
C          5.23430       -1.66052        0.01916
C          5.58557        0.23372        1.42807
H          0.14185       -0.93466       -1.42927
H          0.56191       -0.36042        0.18414
H          1.68908       -0.15903       -1.17836
H         -1.63721        1.05145        0.07052
H         -1.81964        2.12613       -1.33793
H         -1.88008        0.38479       -1.55161
H          1.85047        2.17700       -0.81076
H          0.53831        3.15278       -1.37552
H          0.92790        3.82788        0.82787
H         -0.61729        3.02733        0.82204
H          0.51552        2.41706        2.81823
H          0.47594        0.97021        1.82372
H          2.79409        1.67460        1.11428
H          3.86571        1.34832        3.31879
H          2.27413        1.21708        3.98427
H          3.31537       -1.00193        3.57847
H          1.77994       -0.79289        2.77130
H          3.01975       -1.94295        1.26079
H          3.04395       -0.32670        0.59935
H          4.89771       -1.04700       -0.82545
H          6.31666       -1.80555       -0.07067
H          4.77946       -2.65314       -0.07283
H          5.15071        1.00236        0.77966
H          5.58127        0.58233        2.46240
H          6.64554        0.13392        1.16545
