35

C          0.95740       -0.00819       -0.11237
C          0.60840       -0.67518        1.16366
N          1.09752       -1.83839        1.54252
N          0.44501       -2.22988        2.67662
C         -0.43524       -1.30025        2.97817
N         -0.34600       -0.25877        2.08068
C         -1.04644        0.97359        2.17044
C         -0.40581        2.15159        1.74628
C         -1.04223        3.38918        1.86406
C         -2.31515        3.46257        2.41591
Cl        -3.09568        4.98722        2.56388
C         -2.96264        2.30818        2.84820
C         -2.34179        1.05141        2.72487
C         -3.15595       -0.14986        3.10505
C         -4.59206       -0.16070        2.70856
C         -4.89884       -0.15489        1.34017
C         -6.23141       -0.17203        0.92659
C         -7.25546       -0.20277        1.87306
C         -6.95092       -0.21290        3.23627
C         -5.61907       -0.19124        3.66029
Cl        -5.31565       -0.12592        5.35906
N         -2.72276       -1.19544        3.71671
C         -1.33583       -1.27068        4.14860
H          0.11990        0.56083       -0.52597
H          1.23493       -0.75863       -0.86106
H          1.81586        0.65668        0.02290
H          0.61475        2.14884        1.37212
H         -0.52965        4.29319        1.54168
H         -3.95567        2.39921        3.28335
H         -4.10857       -0.15432        0.59378
H         -6.47290       -0.17150       -0.13388
H         -8.29421       -0.22166        1.55005
H         -7.75832       -0.23403        3.96422
H         -1.08491       -0.44521        4.82691
H         -1.20649       -2.19131        4.72924
