57

C          0.80784       -0.49319        0.85141
C          0.19208       -1.65446        0.07544
N          1.06659       -2.77950       -0.26142
C          0.33872       -3.84971       -0.96019
C          0.95566       -4.53759       -2.17545
C          2.44786       -2.49985       -0.64269
C          2.78273       -1.82512       -1.98623
O          2.16955       -0.54225       -2.17342
C          1.02209       -0.52480       -2.90087
O          0.42352       -1.52917       -3.27641
C          0.57328        0.90241       -3.29619
C          0.60450        0.85229       -4.88304
C         -0.08937        2.00373       -5.62788
C          0.02845        1.90594       -7.14910
C          1.46995        1.72452       -7.59751
C          2.07060        0.48882       -6.94847
C          2.03534        0.61201       -5.42909
C         -0.85863        1.05863       -2.71090
C         -1.41426        2.48079       -2.63845
C         -0.44443        3.47343       -2.01713
C          0.94897        3.39512       -2.62162
C          1.48848        1.96963       -2.63451
H          1.08110       -0.79965        1.86517
H          0.07919        0.32177        0.92937
H          1.69158       -0.07355        0.36409
H         -0.63934       -2.03400        0.68335
H         -0.27034       -1.25625       -0.82800
H          0.15086       -4.63056       -0.21330
H         -0.65542       -3.49970       -1.26968
H          1.94838       -4.94383       -1.96716
H          0.31709       -5.37235       -2.48521
H          1.01726       -3.87113       -3.03716
H          2.90624       -1.90003        0.15321
H          3.01096       -3.44134       -0.59741
H          3.86384       -1.63599       -1.99446
H          2.60885       -2.47802       -2.84497
H          0.02794       -0.03942       -5.17764
H         -1.15797        2.00002       -5.39819
H          0.31957        2.96633       -5.32360
H         -0.38831        2.81203       -7.60324
H         -0.57604        1.06360       -7.50753
H          2.05823        2.60902       -7.32327
H          1.51252        1.63202       -8.68757
H          3.10561        0.35712       -7.28239
H          1.51648       -0.40508       -7.26154
H          2.69897        1.43044       -5.13320
H          2.45727       -0.30937       -5.01170
H         -1.56566        0.41768       -3.25253
H         -0.85576        0.68104       -1.67986
H         -2.33757        2.46818       -2.04556
H         -1.71125        2.83734       -3.62604
H         -0.38050        3.28627       -0.93845
H         -0.83788        4.48995       -2.13581
H          1.62478        4.02485       -2.02974
H          0.95593        3.82478       -3.62449
H          1.63916        1.70020       -1.57878
H          2.49145        1.96481       -3.07262
