48

C          0.08997       -1.82948        0.43058
C         -0.18953       -2.43406       -0.97233
C         -0.89338       -1.35774       -1.84940
C         -2.25655       -0.94188       -1.29876
C         -3.14536       -2.13849       -1.07596
O         -4.36947       -2.04502       -1.02094
C         -2.51132       -3.45691       -0.85583
C         -1.17503       -3.60614       -0.80016
C         -0.61929       -4.97995       -0.52443
C          0.58494       -5.27612       -1.40885
C          1.67013       -4.23281       -1.09461
C          1.17071       -2.88118       -1.67750
C          2.24795       -1.78412       -1.62566
C          3.62563       -2.24447       -2.07082
C          4.12568       -3.51185       -1.38535
C          5.53780       -3.82705       -1.92005
C          4.26289       -3.46865        0.13646
O          4.53080       -2.46678        0.78373
C          4.04790       -4.83892        0.75198
C          3.71200       -5.68978       -0.47867
O          2.85136       -6.75394       -0.13161
C          3.11365       -4.67989       -1.49806
H         -0.79845       -1.83186        1.07133
H          0.41879       -0.78576        0.35165
H          0.86931       -2.37474        0.97168
H         -1.03544       -1.75462       -2.86475
H         -0.27041       -0.46206       -1.94997
H         -2.74915       -0.27824       -2.01724
H         -2.15717       -0.40417       -0.35007
H         -3.19937       -4.28112       -0.69949
H         -1.37583       -5.75721       -0.68462
H         -0.32719       -5.04200        0.53224
H          0.30343       -5.23844       -2.46969
H          0.90338       -6.30083       -1.22335
H          1.68537       -4.11212       -0.00671
H          0.95631       -3.05229       -2.74394
H          2.34978       -1.37166       -0.61886
H          1.94605       -0.94906       -2.27020
H          3.60386       -2.41292       -3.15618
H          4.33104       -1.42063       -1.90102
H          6.18629       -2.94710       -1.81901
H          6.04465       -4.62194       -1.36218
H          5.51222       -4.11314       -2.97503
H          4.95851       -5.19283        1.24018
H          3.22636       -4.81335        1.47406
H          4.62530       -6.14423       -0.87791
H          2.78569       -7.34355       -0.90462
H          3.09669       -5.10510       -2.50867
