14

S          1.45713       -0.56712       -0.67550
C          2.86064       -0.05730       -0.11921
N          3.89228        0.30019        0.31708
C          4.50435        1.27527       -0.48966
C          4.23846        2.63713       -0.28983
C          4.87088        3.60771       -1.07152
C          5.78634        3.21825       -2.04735
Br         6.64503        4.52879       -3.10426
C          6.07983        1.87011       -2.24356
C          5.44457        0.90283       -1.45996
H          3.53712        2.94511        0.48213
H          4.64768        4.65858       -0.90647
H          6.80234        1.56217       -2.99491
H          5.68702       -0.14745       -1.60418
