49

C          1.79674        0.57463        0.22843
C          1.26305       -0.84896        0.25965
C          1.28507       -1.47706        1.65349
C          0.36031       -0.86614        2.72834
N         -1.10671       -0.85583        2.54632
C         -1.54476        0.36324        1.86274
C         -3.04147        0.40792        1.58382
C         -3.43818       -0.78947        0.73942
C         -3.11968       -2.05971        1.50696
C         -1.67235       -2.11940        2.01779
C         -1.50895       -3.28895        3.03407
O         -0.67322       -4.17923        2.82555
N         -2.29798       -3.43366        4.16133
C         -2.66049       -2.35440        5.00410
C         -4.00225       -1.92454        5.06023
C         -5.13731       -2.62536        4.36116
C         -4.34135       -0.83894        5.88569
C         -3.39069       -0.24602        6.70871
C         -2.10019       -0.76320        6.75256
C         -1.72364       -1.83256        5.92238
C         -0.37328       -2.45750        6.15301
H          1.20647        1.24736        0.85583
H          1.77016        0.96170       -0.79549
H          2.83504        0.60845        0.57329
H          0.25749       -0.88646       -0.16970
H          1.89187       -1.45976       -0.40037
H          1.07456       -2.54780        1.55368
H          2.31389       -1.42602        2.03487
H          0.56374       -1.42004        3.64853
H          0.70867        0.14938        2.95889
H         -1.02749        0.49280        0.90893
H         -1.29170        1.23287        2.48186
H         -3.28979        1.33416        1.05367
H         -3.60310        0.41519        2.52631
H         -4.50838       -0.75018        0.50893
H         -2.89837       -0.77887       -0.21489
H         -3.82298       -2.12672        2.32750
H         -3.31979       -2.93139        0.87121
H         -1.09517       -2.40820        1.13050
H         -1.86361       -4.19143        4.67937
H         -5.63388       -1.94260        3.66380
H         -4.81520       -3.51292        3.80963
H         -5.87291       -2.96253        5.10007
H         -5.36664       -0.47544        5.91528
H         -3.66922        0.58219        7.35472
H         -1.38877       -0.33913        7.45809
H         -0.48282       -3.32288        6.81526
H          0.09753       -2.79154        5.22803
H          0.31574       -1.74922        6.62544
