16

C          0.87853       -0.12604        0.12683
C          0.52846        1.27867        0.48616
C         -0.74252        1.50452        1.20973
N         -1.20194        2.63981        1.61122
C         -0.44145        3.74882        1.35906
O         -0.77878        4.88034        1.69576
N          0.74783        3.57742        0.69718
C          1.24985        2.38947        0.26120
N          2.45544        2.40242       -0.39446
H          0.42557       -0.39292       -0.83328
H          0.51423       -0.82905        0.88337
H          1.96028       -0.27416        0.05279
H         -1.34125        0.60098        1.41381
H          1.27999        4.42465        0.57497
H          2.62174        3.26825       -0.89862
H          2.62069        1.58985       -0.98137
