15

N         -1.79368        1.97097        0.17132
C         -1.18889        0.72165        0.10696
N         -1.98340       -0.37335        0.06383
C         -1.39692       -1.59062        0.00804
N         -0.08093       -1.88776       -0.02780
C          0.65326       -0.76679        0.00023
N          2.01402       -0.67376       -0.02838
C          2.33748        0.65603        0.00364
N          1.26746        1.42202        0.05344
C          0.20345        0.54042        0.06230
H         -1.19248        2.72309       -0.14625
H         -2.74372        1.94940       -0.17442
H         -2.07549       -2.43890       -0.01256
H          2.65107       -1.45472       -0.06879
H          3.36305        1.00163       -0.01199
