36

C          0.49941       -0.09923        0.14408
C          1.12697        0.89080        1.11529
C          1.35655        2.25648        0.53187
C          0.99339        3.47286        1.06727
C          1.39881        4.61031        0.27139
C          2.04505        4.17977       -0.88140
S          2.18823        2.47309       -0.93373
N          2.55216        4.88304       -1.98652
C          2.78651        4.26350       -3.29074
C          2.80746        6.25341       -1.88967
O          2.98135        6.97293       -2.87671
C          3.01647        6.81219       -0.49327
N          1.75708        7.02380        0.20550
C          1.08408        6.00255        0.60254
C         -0.09431        6.26405        1.45645
C         -1.33648        6.45223        0.83920
C         -2.45840        6.73378        1.62041
C         -2.33907        6.83064        3.00800
C         -1.09623        6.65268        3.62034
C          0.03271        6.37607        2.84583
Cl         1.54253        6.16177        3.65641
H         -0.41743        0.30111       -0.30108
H          0.24881       -1.02922        0.66471
H          1.18796       -0.35532       -0.66827
H          0.46386        0.98333        1.98489
H          2.07749        0.49103        1.48797
H          0.45833        3.54418        2.00739
H          3.61091        3.54782       -3.20768
H          1.87497        3.75683       -3.62299
H          3.06511        4.99339       -4.05567
H          3.70967        6.18258        0.07754
H          3.51676        7.78224       -0.59704
H         -1.42826        6.39771       -0.24302
H         -3.42563        6.88959        1.14732
H         -3.21392        7.05560        3.61448
H         -1.01419        6.73853        4.70139
