22

Cl         1.13670        0.24433       -0.05643
C          2.85726        0.07572       -0.05935
C          3.61783        1.25049       -0.06087
C          5.01089        1.18313       -0.06322
C          5.64161       -0.05914       -0.06403
C          4.89352       -1.23393       -0.06256
C          3.49252       -1.17446       -0.06021
Cl         2.57922       -2.64812       -0.05839
O          5.50711       -2.46168       -0.06337
C          6.88174       -2.47532       -0.06542
C          7.53289       -3.71697       -0.06605
Cl         6.57098       -5.16402       -0.06426
C          8.93767       -3.77310       -0.06808
Cl         9.74534       -5.31532       -0.06885
C          9.68611       -2.57970       -0.06949
Cl        11.42619       -2.63438       -0.07197
C          9.02399       -1.33953       -0.06887
Cl         9.90723        0.15728       -0.07054
C          7.62291       -1.29397       -0.06684
O          7.01065       -0.06281       -0.06629
H          3.12887        2.22259       -0.06021
H          5.60085        2.09697       -0.06438
