46

O          0.13898        2.20435        0.21166
C         -0.06182        1.77007        1.55685
C          0.44680        0.35041        1.74869
C          0.88251       -0.33575        0.65432
C         -0.23797       -1.28040        0.17798
O          0.22076       -2.61772        0.13539
C         -1.34923       -1.00089        1.22587
C         -2.41342       -1.97715        1.57940
C         -2.82154       -2.11156        2.83607
O         -2.26019       -1.53776        3.94961
C         -1.21421       -0.56482        3.78099
O         -0.31570       -0.57592        4.90570
C          0.41507       -1.71146        5.40464
O         -0.23629       -2.55066        6.35538
C         -0.58135       -3.90480        6.01453
C         -2.11491       -3.97841        5.93712
O         -2.62617       -4.50255        4.72398
C          0.31466       -4.64671        4.98429
O         -0.31293       -5.77717        4.37609
C          0.90647       -3.74210        3.90832
O         -0.07878       -3.55026        2.89854
C          1.45583       -2.45875        4.54758
O          2.16612       -1.61941        3.63837
C         -0.49015       -0.64360        2.43335
H          1.04644        1.95636       -0.04163
H          0.45839        2.46808        2.21455
H         -1.13645        1.84836        1.74805
H          1.83511       -0.86444        0.76326
H         -0.56374       -0.99486       -0.82569
H          0.67881       -2.82884        0.97125
H         -1.90246       -0.11454        0.87950
H         -2.89919       -2.52739        0.77566
H         -3.63231       -2.77753        3.12137
H         -1.71357        0.40979        3.83674
H          1.07737       -1.15429        6.08179
H         -0.36626       -4.44737        6.94751
H         -2.48365       -4.60986        6.75512
H         -2.55408       -2.98688        6.09529
H         -3.58862       -4.58405        4.86718
H          1.16771       -5.05725        5.53792
H         -0.89491       -5.42685        3.66797
H          1.72352       -4.25422        3.38721
H         -0.93126       -3.36987        3.34030
H          2.22423       -2.81502        5.24987
H          2.14588       -0.71143        3.99532
H          0.17294       -1.47407        2.61387
