39

C          1.01302       -0.47199       -0.05921
C          0.98913       -0.16119        1.42438
O          2.28439        0.06094        1.94388
P          3.08919        1.45334        1.83109
S          3.19859        2.35800        0.12028
O          2.58430        2.33757        3.08279
C          1.23628        2.60615        3.39829
C          0.53880        3.46892        2.36566
O          4.54210        0.95791        2.35938
C          5.17344        1.58606        3.35869
C          5.87098        2.78357        2.91163
C          6.36972        3.54429        3.88545
C          6.22162        3.17285        5.31618
O          6.66829        3.96501        6.14411
N          5.63798        1.92276        5.56219
C          5.40314        1.40950        6.87660
C          5.33244        0.02149        7.08582
C          5.11302       -0.50641        8.36196
C          4.92187        0.34705        9.44448
C          4.96270        1.72515        9.25250
C          5.21542        2.25158        7.98111
N          5.10613        1.12580        4.55759
H          0.98254        0.45109       -0.64513
H          0.13201       -1.05469       -0.34416
H          1.91644       -1.01924       -0.34339
H          0.31899        0.67290        1.63400
H          0.59025       -1.03113        1.95695
H          0.69953        1.67224        3.58078
H          1.24329        3.14953        4.34964
H          0.39612        2.92992        1.42586
H         -0.44793        3.77483        2.72614
H          1.12608        4.36444        2.14050
H          5.98108        3.01079        1.86138
H          6.91352        4.45846        3.68322
H          5.48792       -0.66538        6.25698
H          5.09507       -1.58329        8.50677
H          4.73995       -0.05981       10.43554
H          4.79524        2.39752       10.09004
H          5.21530        3.33242        7.87064
