63

C          0.95642        0.03233       -0.12224
C          0.53058       -0.94171       -1.23223
C          0.93105       -2.35647       -0.79703
C         -0.98839       -0.84749       -1.41743
O          1.20460       -0.45519       -2.42976
C          1.17397       -1.14558       -3.59721
O          0.82094       -2.30896       -3.73101
N          1.55525       -0.41037       -4.69777
C          1.90661        1.10659       -4.83575
C          3.69775        0.95107       -4.84202
O          4.43556        1.94920       -4.91963
N          4.40140       -0.24806       -4.70847
C          5.90561       -0.20404       -4.72313
C          6.44376       -0.91863       -5.90470
N          6.88090       -1.52190       -6.79708
C          6.30993       -0.95307       -3.43978
C          5.24280       -1.99958       -3.30963
C          3.97065       -1.71597       -2.59257
C          4.02631       -1.48946       -4.07436
C          0.73372        2.46056       -5.97056
C         -0.33912        1.84627       -6.92035
C          0.20461        0.67471       -6.30903
C         -0.36797        1.24208       -4.59338
C          0.48139        2.80629       -4.07052
C          2.18800        3.32475       -4.62354
C          2.55880        2.68096       -6.37085
O          3.75306        3.12132       -6.95838
C          1.92617        1.02798       -7.02434
C          1.46562        3.40197       -6.94580
C         -0.11850        3.51082       -5.16349
H          0.50349       -0.22564        0.84107
H          0.67578        1.06163       -0.37287
H          2.04643        0.02929       -0.00281
H          0.43276       -2.63333        0.13938
H          0.66278       -3.11630       -1.53499
H          2.00764       -2.42944       -0.62698
H         -1.28920        0.17491       -1.67203
H         -1.33078       -1.49003       -2.23507
H         -1.52207       -1.14100       -0.50698
H          1.65009       -1.00290       -5.51305
H          1.84083        1.35709       -3.76285
H          6.31308        0.81051       -4.70446
H          6.25759       -0.27098       -2.58092
H          7.31651       -1.38009       -3.47533
H          5.56926       -3.01613       -3.47460
H          3.90440       -0.85311       -1.94183
H          3.41434       -2.58004       -2.24918
H          3.56997       -2.21478       -4.74434
H         -1.39647        2.02470       -6.71033
H         -0.18782        1.89746       -8.00144
H         -0.22854       -0.27451       -6.63565
H         -1.44792        1.44854       -4.67150
H         -0.33146        0.50212       -3.81225
H          0.22407        3.13707       -3.06282
H          2.92092        3.06773       -3.85303
H          2.22435        4.42435       -4.67550
H          4.44910        2.95633       -6.28895
H          2.64081        0.21279       -6.87492
H          1.83002        1.12230       -8.11764
H          1.35276        3.26429       -8.02529
H          1.49051        4.47888       -6.75357
H          0.15370        4.56856       -5.21407
H         -1.20900        3.44808       -5.21040
