59

C         -0.31478        0.43465       -0.91409
N         -0.04208       -1.00946       -0.78687
C         -0.33128       -1.40550        0.61567
C          0.40245       -2.63732        1.19470
C          1.81697       -2.82171        0.58798
C          1.63493       -3.95387       -0.36908
C          1.39127       -3.87065       -1.70853
C          1.34963       -5.09897       -2.38256
C          1.49007       -6.34121       -1.67884
C          1.70961       -6.37599       -0.29817
O          1.86852       -7.55562        0.37633
C          1.17570       -7.59263        1.65901
C          2.11278       -7.38756        2.88953
N          1.71075       -6.55791        4.06204
C          0.56238       -5.65430        3.88076
C          0.27066       -4.84177        5.15630
O          1.40493       -4.05503        5.54065
C          2.52317       -4.91512        5.79546
C          2.86848       -5.77579        4.56801
C          1.86689       -5.15316        0.29279
O          2.44630       -4.92718        1.51404
C          2.90438       -3.55444        1.38887
C          4.27037       -3.58172        0.60539
O          5.32811       -4.09179        1.40714
C          4.66242       -2.24274        0.07676
C          3.75274       -1.32762       -0.26216
C          2.27413       -1.50590       -0.03696
C          1.34917       -1.28818       -1.25845
C          1.36137       -2.48689       -2.30246
H         -1.33143        0.67542       -0.58580
H         -0.22840        0.75898       -1.95654
H          0.38706        1.03025       -0.31420
H         -0.10966       -0.57109        1.29633
H         -1.41370       -1.56932        0.70339
H         -0.24825       -3.51071        1.03541
H          0.47380       -2.51479        2.28217
H          1.23088       -5.12226       -3.46411
H          1.45675       -7.27468       -2.23652
H          0.30839       -6.92569        1.64477
H          0.75916       -8.60572        1.73001
H          2.25726       -8.38714        3.32379
H          3.11327       -7.11192        2.53307
H          0.74219       -4.93669        3.07903
H         -0.33769       -6.22429        3.63221
H         -0.01749       -5.49599        5.98744
H         -0.55916       -4.15046        4.97482
H          2.30642       -5.54096        6.66834
H          3.37494       -4.27464        6.05006
H          3.69104       -6.44924        4.83252
H          3.24024       -5.10045        3.79119
H          3.03677       -3.14042        2.39412
H          4.21525       -4.24764       -0.26776
H          5.66939       -4.86452        0.91855
H          5.72282       -2.03857       -0.05038
H          4.08357       -0.35195       -0.61649
H          2.08019       -0.70720        0.69720
H          1.71860       -0.41989       -1.82212
H          2.27189       -2.38021       -2.90712
H          0.50740       -2.39330       -2.98309
