22

N          1.14416       -0.21655        0.11676
C          0.37676       -0.87096        1.03922
O         -0.68810       -0.39521        1.42007
C          0.99034       -2.14397        1.62681
O          1.80499       -2.91150        0.73843
C          1.11658       -3.52202       -0.25721
O         -0.07407       -3.39817       -0.49464
C          2.03591       -4.32613       -1.09169
C          1.77190       -4.42735       -2.46281
C          2.60549       -5.19331       -3.27825
C          3.69121       -5.87139       -2.72352
C          3.94926       -5.78285       -1.35463
C          3.12550       -5.00766       -0.53574
H          0.73135        0.58991       -0.33359
H          1.94699       -0.65665       -0.31058
H          1.62730       -1.83550        2.46298
H          0.19350       -2.77606        2.03568
H          0.91773       -3.91107       -2.89664
H          2.40365       -5.26773       -4.34420
H          4.33354       -6.47689       -3.35906
H          4.78879       -6.32497       -0.92557
H          3.32757       -4.95743        0.53117
