21

C         -2.92465        0.06184       -0.07871
C         -1.42650        0.05661       -0.01371
C         -0.73082       -1.14935        0.09328
C          0.66815       -1.16275        0.12658
C          1.41451        0.02344        0.08927
N          2.81091       -0.08206        0.00027
C          0.70860        1.22057       -0.09415
S          1.54330        2.77396       -0.23815
O          2.83275        2.68483        0.41832
O          1.42075        3.23558       -1.60351
O          0.66691        3.80309        0.64733
C         -0.69737        1.24337       -0.12408
H         -3.25858       -0.26352       -1.06877
H         -3.34306       -0.60857        0.67916
H         -3.32757        1.06199        0.11180
H         -1.27097       -2.09295        0.13770
H          1.17656       -2.12319        0.18034
H          3.19840       -0.90482        0.45237
H          3.31088        0.76588        0.28692
H          0.85199        4.70671        0.31692
H         -1.22134        2.18932       -0.24802
