24

O          1.14058       -0.00203       -0.00514
C          2.35229        0.16343       -0.00922
O          3.02816        0.47730        1.11295
C          3.19952        0.00100       -1.25834
C          4.10587        1.20800       -1.53562
C          4.89942        1.02705       -2.82665
C          5.66084       -0.29411       -2.84219
C          4.72925       -1.48607       -2.62166
C          3.90795       -1.36246       -1.32956
C          4.78656       -1.74207       -0.15450
O          5.15667       -2.87240        0.11647
O          5.24271       -0.70568        0.57643
H          4.00382        0.44475        1.00124
H          2.46623        0.00348       -2.08107
H          3.49516        2.11665       -1.60942
H          4.80505        1.38774       -0.71272
H          5.60162        1.85988       -2.94620
H          4.21525        1.06311       -3.68342
H          6.43735       -0.28021       -2.06796
H          6.17524       -0.40713       -3.80333
H          5.32195       -2.40889       -2.61810
H          4.04167       -1.55938       -3.47404
H          3.12286       -2.13228       -1.34057
H          5.85714       -1.15461        1.20560
