10

Cl         1.03360        0.00045       -0.03383
C          2.73674        0.01089       -0.05066
Cl         3.66639        0.74634        1.17151
C          3.34695       -0.59624       -1.01742
C          3.93268       -1.21492       -2.00142
Cl         5.65515       -1.12157       -1.99262
C          3.29220       -1.97910       -3.11584
Cl         2.35599       -3.35621       -2.48035
Cl         2.23237       -0.91944       -4.08060
H          4.03436       -2.39337       -3.80413
