26

C          1.14068        0.05390       -0.03506
C          0.55894       -1.17945        0.64760
C          1.00398       -1.35728        2.12254
C          0.59655       -0.12649        2.95190
C          0.51680       -2.71777        2.75851
C          1.05169       -3.91841        1.94597
C          1.06321       -2.87090        4.19622
C         -1.01903       -2.82188        2.81633
H          0.71825        0.97732        0.37139
H          0.90576        0.03357       -1.10447
H          2.22919        0.08801        0.07166
H         -0.53328       -1.12721        0.58169
H          0.87471       -2.04518        0.05721
H          2.10332       -1.38248        2.12349
H         -0.48536        0.03513        2.92853
H          0.91059       -0.21236        3.99517
H          1.07666        0.78083        2.57186
H          2.13735       -3.85300        1.81418
H          0.83711       -4.86659        2.45327
H          0.58980       -3.98413        0.95603
H          0.60479       -2.15772        4.88838
H          0.85317       -3.87047        4.59520
H          2.14881       -2.72616        4.22330
H         -1.45828       -2.01445        3.41056
H         -1.46652       -2.79046        1.81800
H         -1.32911       -3.76728        3.27727
