42

C          1.10541        0.39166       -0.01283
C          0.80735       -0.42916       -1.25815
C          1.22594       -1.89595       -1.12876
C          0.56690       -2.65745        0.02681
C         -0.96537       -2.68541       -0.01064
C         -1.56459       -3.34714       -1.25560
C         -1.13860       -4.80207       -1.47000
C         -1.62324       -5.76937       -0.38384
C         -3.12583       -6.07051       -0.43709
C         -3.57238       -6.84064       -1.68123
O         -3.03509       -8.17296       -1.65177
C         -1.89815       -8.40462       -2.36614
O         -1.35936       -7.59807       -3.11354
C         -1.40386       -9.84212       -2.15929
C         -1.74784      -10.40238       -0.78415
O         -1.90326      -10.72317       -3.15884
H          0.52284        0.04621        0.84641
H          0.84892        1.44172       -0.18274
H          2.16754        0.33708        0.24569
H         -0.25917       -0.35626       -1.49780
H          1.34381        0.01214       -2.10651
H          1.01554       -2.40690       -2.07594
H          2.31421       -1.94410       -0.99806
H          0.95713       -3.68179        0.03863
H          0.88507       -2.22057        0.98030
H         -1.32706       -3.19628        0.88867
H         -1.35485       -1.66361        0.06225
H         -2.65720       -3.28624       -1.19621
H         -1.28594       -2.76897       -2.14446
H         -1.50106       -5.11876       -2.45229
H         -0.04682       -4.86429       -1.53421
H         -1.05915       -6.70497       -0.46378
H         -1.37842       -5.37505        0.60819
H         -3.37235       -6.67143        0.44757
H         -3.69846       -5.14051       -0.35884
H         -4.66241       -6.94791       -1.65711
H         -3.33521       -6.31790       -2.61311
H         -0.31145       -9.81590       -2.24757
H         -2.82991      -10.53085       -0.66670
H         -1.30205      -11.39391       -0.65345
H         -1.38992       -9.74648        0.01610
H         -2.87292      -10.64001       -3.15846
