22

N          1.08336       -0.06231       -0.13849
C          0.59098       -0.69067        1.08896
C          1.02276        0.04343        2.36839
C          0.49961        1.45781        2.46757
C          1.37455        2.55217        2.35004
C          0.89465        3.86401        2.42168
C         -0.46419        4.07867        2.61228
O         -0.99494        5.33687        2.68447
C         -1.33540        3.00020        2.73531
O         -2.67019        3.22012        2.92240
C         -0.86798        1.69520        2.66698
H          0.67933        0.87355       -0.20922
H          2.08980        0.07874       -0.07006
H         -0.50112       -0.75929        1.03370
H          0.97170       -1.71729        1.12481
H          0.66926       -0.51812        3.24265
H          2.11828        0.04386        2.43739
H          2.43950        2.38709        2.19878
H          1.59059        4.69102        2.32635
H         -0.27017        5.97631        2.57635
H         -2.75740        4.19402        2.93134
H         -1.57096        0.87254        2.76558
