34

C          1.02066       -0.06472       -0.08313
C          0.36076        1.21594       -0.62837
C          0.95213        1.52408       -2.01707
C         -1.16370        1.01033       -0.78606
O         -1.78893        0.53271        0.39962
C          0.67821        2.40875        0.30784
O          0.19871        2.18240        1.64171
C         -0.93485        2.84090        2.00685
O         -1.49478        3.69912        1.32908
C         -1.41217        2.43584        3.40054
C         -0.88154        1.05381        3.81904
C         -0.91496        3.49839        4.38819
C         -2.95234        2.36868        3.36102
O         -3.55284        3.65888        3.27643
H          0.76692       -0.93089       -0.70473
H          0.70539       -0.28689        0.94171
H          2.11260        0.02844       -0.07493
H          0.75739        0.70672       -2.72068
H          0.51819        2.43782       -2.43840
H          2.03782        1.66375       -1.96423
H         -1.65022        1.95201       -1.06373
H         -1.38116        0.28931       -1.58261
H         -1.51255       -0.39095        0.52559
H          1.76483        2.53395        0.39107
H          0.29711        3.34812       -0.11078
H          0.21318        1.03742        3.87001
H         -1.25620        0.77117        4.80939
H         -1.18956        0.27690        3.11071
H         -1.21552        4.50779        4.08485
H         -1.30682        3.31676        5.39472
H          0.17973        3.49823        4.44561
H         -3.30947        1.77352        2.51262
H         -3.33990        1.90202        4.27342
H         -3.23209        4.05914        2.44198
