29

C          0.90681       -0.41918        0.14644
C          0.50469        0.91788        0.74919
C          1.00698        2.11745       -0.05719
C          0.40819        2.25867       -1.46125
C         -1.09614        2.55404       -1.49850
C         -1.48829        3.91921       -0.93350
O         -0.97236        4.95982       -1.77996
C          0.10422        5.65387       -1.33098
O          0.62951        5.51178       -0.23374
C          0.57586        6.68125       -2.33357
C          0.15991        6.40267       -3.76840
H          0.42266       -0.58684       -0.81976
H          0.61122       -1.23603        0.81231
H          1.99105       -0.47434        0.00503
H         -0.58306        0.95793        0.86765
H          0.92839        0.98170        1.75886
H          0.81634        3.02537        0.52340
H          2.09768        2.04603       -0.15326
H          0.94688        3.05221       -1.99235
H          0.59858        1.34402       -2.03402
H         -1.41098        2.51476       -2.54929
H         -1.64922        1.76837       -0.97381
H         -2.57968        4.01326       -0.95918
H         -1.19020        4.03706        0.11317
H          0.19743        7.65864       -2.01851
H          1.67087        6.69994       -2.28996
H         -0.92867        6.44196       -3.88052
H          0.59355        7.14920       -4.44085
H          0.49692        5.41200       -4.09134
