38

C          1.01706       -0.49260       -0.09628
C          0.75975        0.83666        0.59019
C          1.32048        2.03019       -0.18239
C          0.58529        2.43021       -1.47564
C         -0.94965        2.49204       -1.45780
C         -1.65910        3.75131       -0.92882
C         -1.98974        4.73683       -2.03423
O         -2.57135        4.43499       -3.07034
C         -1.64036        6.14922       -1.68118
C         -0.66950        5.97710       -0.52978
C         -0.95794        4.62178        0.13213
C         -1.76455        4.75198        1.43086
C         -1.73265        3.45807        2.21970
O         -0.90876        3.20551        3.08498
O         -2.71301        2.61824        1.79196
C         -2.73724        1.33140        2.41508
H          0.55305       -0.53163       -1.08545
H          0.60600       -1.31002        0.50512
H          2.09199       -0.66720       -0.20814
H         -0.30946        0.95686        0.77510
H          1.23327        0.80997        1.57935
H          1.37389        2.87609        0.50537
H          2.36766        1.82514       -0.44057
H          0.98807        3.38352       -1.83836
H          0.86320        1.68679       -2.23501
H         -1.27517        2.33372       -2.49551
H         -1.34700        1.62395       -0.92264
H         -2.64518        3.43780       -0.56243
H         -1.17218        6.65391       -2.53032
H         -2.54501        6.67839       -1.37093
H         -0.72688        6.81830        0.16895
H          0.35328        5.96773       -0.92851
H          0.00244        4.21094        0.42239
H         -1.32030        5.52000        2.07703
H         -2.80080        5.05889        1.25539
H         -1.73340        0.94345        2.61293
H         -3.31191        1.38852        3.34270
H         -3.23806        0.63888        1.73202
