78

C          1.48365        0.07259       -0.30064
C          0.62789        1.04530        0.51053
C          0.97876        2.48788        0.13826
C         -0.87773        0.80119        0.29459
C         -1.38955       -0.57262        0.74772
C         -1.16315       -0.89748        2.22649
C         -1.66868        0.16352        3.20508
C         -3.18002        0.42092        3.15526
C         -4.02280       -0.64741        3.85529
C         -3.83118       -0.70772        5.36797
O         -4.24529        0.50898        6.01233
C         -3.25571        1.37557        6.32955
O         -2.08882        1.36144        5.97014
C         -3.76830        2.39183        7.24855
C         -3.77168        3.72144        6.80783
C         -4.17292        4.73619        7.67516
C         -4.55831        4.42589        8.98007
C         -4.55684        3.09795        9.41882
C         -4.15433        2.06857        8.55587
C         -4.16309        0.68185        9.07785
O         -4.97089        0.28485        9.90379
O         -3.13586       -0.01493        8.54877
C         -3.01815       -1.41091        8.85898
C         -1.75667       -1.62869        9.68571
C         -1.80324       -0.93075       11.04716
C         -2.90156       -1.45927       11.97330
C         -2.64621       -2.87315       12.50166
C         -1.46723       -2.98023       13.47367
C         -1.53435       -2.02688       14.67468
C         -2.83193       -2.11508       15.50104
C         -2.98342       -3.48039       16.17066
C         -2.86394       -1.00222       16.54917
H          1.22603        0.11130       -1.36437
H          1.34900       -0.95670        0.04563
H          2.54752        0.31205       -0.20082
H          0.87449        0.91662        1.57084
H          0.73322        2.70111       -0.90734
H          0.42772        3.19466        0.76819
H          2.04742        2.67913        0.28288
H         -1.44931        1.58450        0.80784
H         -1.11339        0.91657       -0.77119
H         -2.46150       -0.63251        0.52582
H         -0.92449       -1.35910        0.14268
H         -1.63326       -1.86128        2.45441
H         -0.09003       -1.04249        2.40193
H         -1.35938       -0.14574        4.20736
H         -1.14955        1.11107        3.02216
H         -3.39010        1.39705        3.60641
H         -3.51674        0.50960        2.11762
H         -5.07786       -0.42841        3.65074
H         -3.81071       -1.63285        3.42561
H         -4.47200       -1.50030        5.77160
H         -2.80650       -0.98073        5.64297
H         -3.45279        3.96404        5.79613
H         -4.17403        5.77027        7.33737
H         -4.85479        5.22153        9.66047
H         -4.85268        2.87059       10.44178
H         -3.91630       -1.81349        9.33671
H         -2.91075       -1.94130        7.90730
H         -1.57501       -2.70145        9.80552
H         -0.90122       -1.22189        9.13149
H         -0.82365       -1.02395       11.52818
H         -1.95703        0.14457       10.89739
H         -3.02417       -0.75739       12.80457
H         -3.86792       -1.45820       11.46197
H         -3.55706       -3.22913       12.99698
H         -2.48298       -3.56528       11.66798
H         -1.40070       -4.01499       13.82908
H         -0.53070       -2.79482       12.93423
H         -0.67277       -2.22989       15.32354
H         -1.39745       -0.99789       14.31926
H         -3.69870       -1.95750       14.84929
H         -2.11999       -3.70819       16.80436
H         -3.88139       -3.50924       16.79649
H         -3.07995       -4.27797       15.42740
H         -2.83585       -0.01883       16.06697
H         -3.78402       -1.05320       17.14107
H         -2.01216       -1.07180       17.23292
