48

N          2.24191       -0.83080        0.36607
C          1.15163       -0.92508       -0.44615
O          0.04008       -1.15275        0.02398
C          1.37261       -0.68194       -1.93331
C          2.29048       -1.77268       -2.50414
C          2.95917       -1.08772       -3.67857
C          3.15243        0.33631       -3.18304
N          2.04869        0.59106       -2.25782
C          1.63782        1.90153       -2.08196
O          2.29378        2.80946       -2.61896
C          0.37271        2.34619       -1.28168
C         -0.92978        2.38779       -2.09966
C         -1.40562        1.12480       -2.71809
C         -2.04451        0.01233       -2.21113
N         -2.29563       -0.89825       -3.20635
C         -1.87558       -0.33603       -4.31439
N         -1.33909        0.89527       -4.07390
N          0.22986        1.78720        0.05976
C          0.88513        2.14251        1.20661
O          0.95711        1.28975        2.10094
C          1.34651        3.58466        1.52606
C          0.25404        4.29838        2.32159
C          0.55885        5.78032        2.14532
C          1.28698        5.81834        0.82939
O          1.55917        6.81574        0.18495
N          1.65544        4.53316        0.49145
H          2.01590       -0.77239        1.35642
H          3.04315       -0.29662        0.05881
H          0.42798       -0.71377       -2.46459
H          3.05139       -2.09601       -1.78422
H          1.72854       -2.66287       -2.80589
H          3.90021       -1.56346       -3.96947
H          2.28850       -1.10075       -4.54615
H          4.08748        0.44193       -2.62306
H          3.15633        1.04359       -4.01890
H          0.55324        3.40703       -1.11313
H         -1.73406        2.77846       -1.46191
H         -0.79853        3.12824       -2.90135
H         -2.31073       -0.20028       -1.18215
H         -1.93404       -0.76442       -5.30629
H         -0.97225        1.52449       -4.77594
H         -0.14900        0.84399        0.12452
H          2.26022        3.50109        2.12891
H         -0.73945        4.07545        1.91197
H          0.24515        4.00286        3.37615
H         -0.35349        6.38076        2.11189
H          1.22593        6.14896        2.93076
H          2.31471        4.39312       -0.26816
