36

C          0.74556       -0.08089        0.08381
C          0.46265        0.33599       -1.36420
C          0.07406        1.82851       -1.46345
C          1.24232        2.82373       -1.42014
Cl         1.85290        3.04251        0.24694
C          2.38333        2.41919       -2.35614
C          2.80581        0.95765       -2.19865
C          1.60027        0.02704       -2.36203
C          2.01275       -1.43524       -2.40953
O          1.79095       -2.15355       -3.37529
O          2.63866       -1.81492       -1.26849
C          3.06825       -3.18669       -1.07013
C          1.90218       -4.17616       -1.18971
C          4.21572       -3.53523       -2.02172
C          3.58863       -3.22779        0.37479
H          0.65620       -1.16671        0.19475
H          0.01844        0.36297        0.77204
H          1.74736        0.20129        0.41702
H         -0.41887       -0.24346       -1.67291
H         -0.43352        1.96650       -2.42861
H         -0.67369        2.08050       -0.70100
H          0.87318        3.81096       -1.71857
H          3.25168        3.07385       -2.21495
H          2.05136        2.57316       -3.39162
H          3.29272        0.80581       -1.22890
H          3.56208        0.72055       -2.95753
H          1.19262        0.22579       -3.36584
H          1.53278       -4.25683       -2.21613
H          2.20062       -5.18220       -0.87530
H          1.05459       -3.85549       -0.57371
H          5.01966       -2.79412       -1.94739
H          4.63247       -4.52330       -1.79893
H          3.89039       -3.53871       -3.06644
H          4.39973       -2.50498        0.51961
H          2.79702       -2.94863        1.08044
H          3.95752       -4.22251        0.64628
