45

C          0.73399       -0.16849       -0.30539
O          0.15579       -0.53083        0.94812
C          0.66498       -1.68612        1.48176
O          1.44533       -2.40164        0.86456
N          0.25961       -1.87494        2.80572
O         -1.00269       -1.30499        3.13419
C         -0.80583        0.00322        3.67038
C          0.66396       -2.98358        3.60432
C         -0.29105       -3.64080        4.40198
C          0.03896       -4.77920        5.14311
C          1.33073       -5.28738        5.09705
C          2.30558       -4.62198        4.35809
C          2.00262       -3.43556        3.65456
C          3.17031       -2.63186        3.09952
O          4.22660       -2.44381        4.05351
C          3.89821       -1.55164        5.00884
C          3.15263       -1.77154        6.17222
C          3.29273       -0.60474        6.87903
N          4.13541        0.20963        6.14999
C          4.69417        1.44332        6.57572
C          4.78280        1.73695        7.94585
C          5.35208        2.93987        8.36845
C          5.80558        3.85980        7.42602
Cl         6.48273        5.35067        7.95349
C          5.71805        3.57736        6.06274
C          5.18085        2.35873        5.63355
N          4.43357       -0.33458        4.93947
H          0.39955        0.84280       -0.55171
H          0.39933       -0.85283       -1.08973
H          1.82769       -0.15526       -0.24076
H          0.24793        0.23672        3.85890
H         -1.21628        0.73259        2.96571
H         -1.35885        0.07985        4.61003
H         -1.32196       -3.29492        4.42909
H         -0.72067       -5.27680        5.74091
H          1.58848       -6.18186        5.65872
H          3.32900       -4.99555        4.37628
H          3.59635       -3.18983        2.25707
H          2.88176       -1.64578        2.72443
H          2.61214       -2.65504        6.47494
H          2.88520       -0.30057        7.83093
H          4.46773        1.02569        8.70499
H          5.44633        3.14630        9.43155
H          6.06824        4.29969        5.32992
H          5.12156        2.14872        4.56695
