16

N          1.00230        0.24251       -0.11352
C          0.17859        0.43564       -1.23437
N          0.59782       -0.16741       -2.35822
C         -0.13827        0.06426       -3.44632
N         -1.23073        0.82694       -3.50566
C         -1.62063        1.41453       -2.37776
N         -2.71851        2.17845       -2.43245
C         -3.13163        2.77802       -1.29302
C         -2.47127        2.62034       -0.09584
N         -1.36915        1.85540        0.00262
C         -0.94329        1.26152       -1.15662
H          0.45381        0.08411        0.72610
H          1.68539       -0.47853       -0.31855
H          0.18085       -0.41040       -4.36830
H         -4.02034        3.39349       -1.37737
H         -2.80869        3.10269        0.81408
