32

C          0.14444        1.53861       -0.41289
C          0.07201        0.85543        0.93771
O          1.17856        0.98063        1.81540
C          2.50490        1.08942        1.31399
C          3.47337        1.02863        2.49822
O          2.92977        0.22248        0.26937
C          2.52807       -1.14145        0.22311
C          3.30902       -2.12958        1.09594
C          2.59428       -2.71319        2.30111
C          1.71954       -1.97802        3.10611
C          1.14986       -2.51830        4.25955
C          1.44303       -3.82483        4.62788
C          2.29867       -4.58458        3.83647
C          2.87386       -4.03356        2.68704
H          0.07930        2.62373       -0.29891
H         -0.69508        1.20709       -1.03367
H          1.06509        1.31629       -0.95537
H         -0.79626        1.24765        1.47980
H         -0.14682       -0.20797        0.81256
H          2.59539        2.10610        0.91331
H          3.72883        0.00412        2.77365
H          4.42098        1.51624        2.24737
H          3.05245        1.50682        3.38905
H          1.45161       -1.26830        0.30891
H          2.74970       -1.42053       -0.81598
H          3.54973       -2.97990        0.44164
H          4.26573       -1.70294        1.41377
H          1.46889       -0.95492        2.87210
H          0.48978       -1.90788        4.86990
H          1.00997       -4.24301        5.53136
H          2.53052       -5.60770        4.12034
H          3.55154       -4.64510        2.09612
