24

C          0.63841        0.09923        0.06665
O          0.64411        0.42176       -1.32551
C          1.01337        1.72758       -1.54168
C          0.02133        2.59651       -2.00556
C          0.35573        3.91465       -2.30353
N         -0.61736        4.78835       -2.79693
C         -0.35336        6.09541       -3.14573
O         -1.22293        6.82948       -3.59614
C          1.09965        6.59230       -2.94423
O          1.43385        7.73226       -3.23866
N          1.99858        5.68760       -2.42354
C          1.66580        4.36503       -2.11755
C          2.65235        3.49470       -1.65109
C          2.35317        2.14523       -1.43277
N          3.35023        1.28816       -0.93467
H         -0.04521       -0.74403        0.20695
H          0.28659        0.92866        0.69004
H          1.63022       -0.22827        0.39110
H         -0.99215        2.22947       -2.13470
H         -1.56875        4.47775       -2.94128
H          2.94422        6.02565       -2.30660
H          3.66525        3.85264       -1.49168
H          4.29137        1.54734       -1.21343
H          3.14599        0.31666       -1.16485
