57

O          3.04419        0.19487       -0.75683
C          1.93076       -0.31640       -0.70779
C          1.71979       -1.79414       -0.48198
C          0.46970       -2.09043        0.33200
C         -0.70489       -1.25744       -0.09523
C         -2.00981       -1.62628        0.24530
C         -3.07168       -0.75379       -0.00836
C         -2.84658        0.48373       -0.61474
O         -3.94220        1.28869       -0.71884
C         -3.75632        2.69787       -0.88473
C         -3.48266        3.42830        0.43777
C         -2.01235        3.60177        0.86079
C         -1.16525        4.34567       -0.17992
N          0.15974        4.82831        0.19852
C          0.18152        6.18954        0.76783
C          0.03983        6.28444        2.30463
N          1.03500        5.41000        2.93593
C          1.51942        5.63422        4.22433
C          2.89379        5.36141        4.41406
C          3.53616        5.55170        5.63655
C          2.81407        6.02991        6.71935
C          1.45299        6.31146        6.57680
Cl         0.63442        6.89642        7.98998
C          0.79676        6.11513        5.34180
Cl        -0.91814        6.39625        5.25893
C          0.93089        4.00122        2.51254
C          1.01408        3.90522        0.96730
C         -1.56337        0.80577       -1.04024
C         -0.49406       -0.03255       -0.73029
N          0.80664        0.41591       -0.97446
H          1.65420       -2.26249       -1.47128
H          2.59730       -2.20523        0.02834
H          0.23014       -3.15614        0.23816
H          0.66268       -1.88354        1.39178
H         -2.20507       -2.56973        0.74976
H         -4.07876       -1.02730        0.29888
H         -3.05857        2.94585       -1.68885
H         -4.72913        3.05726       -1.24380
H         -3.91217        4.43543        0.36009
H         -4.01404        2.91897        1.25107
H         -2.02002        4.16663        1.79823
H         -1.57175        2.62657        1.09127
H         -0.99550        3.67886       -1.02864
H         -1.74924        5.17115       -0.60524
H          1.14821        6.63247        0.49299
H         -0.57344        6.82526        0.28971
H         -0.97651        5.99152        2.58323
H          0.19733        7.32872        2.59900
H          3.48545        5.01232        3.56789
H          4.59655        5.33320        5.73359
H          3.31352        6.17942        7.67337
H         -0.01240        3.57951        2.87676
H          1.73763        3.38949        2.93446
H          0.85433        2.86845        0.65248
H          2.05139        4.13482        0.68652
H         -1.36821        1.71293       -1.59200
H          0.96511        1.37472       -1.26009
