36

C          0.59675       -0.57329        0.44179
C          0.43114        0.20759       -0.85511
C          0.78923       -0.66917       -2.05869
C         -0.98021        0.71608       -1.04953
N         -2.05317        0.07778       -0.68075
N         -3.13409        0.81290       -1.22400
C         -4.35759        0.16988       -1.35032
O         -4.51832       -1.04110       -1.16653
N         -5.41689        0.84385       -1.89152
C         -6.17896        1.96570       -1.29181
C         -7.22965        2.38191       -2.34054
C         -6.90712        1.48894       -0.02270
C         -5.35463        3.20624       -0.92894
C         -2.59269        1.86126       -2.01861
O         -3.13204        2.64505       -2.79005
N         -1.23113        1.83162       -1.76315
N         -0.30244        2.72795       -2.30152
H         -0.03785       -1.46542        0.46537
H          0.33308        0.04862        1.30340
H          1.63652       -0.89665        0.56427
H          1.11784        1.06135       -0.83362
H          0.16397       -1.56941       -2.09189
H          0.63583       -0.13457       -3.00265
H          1.83628       -0.98576       -2.01632
H         -6.06366        0.11312       -2.16899
H         -7.92146        1.55860       -2.55595
H         -7.82205        3.23976       -2.00571
H         -6.74752        2.65148       -3.28833
H         -6.19630        1.21949        0.76606
H         -7.56350        2.27375        0.37287
H         -7.52798        0.60898       -0.22427
H         -4.52637        2.96924       -0.25539
H         -4.96073        3.70152       -1.81977
H         -5.97765        3.95286       -0.42114
H         -0.30269        3.55051       -1.69200
H         -0.70832        3.07334       -3.17865
