31

C          1.20005       -0.31453       -0.07688
C          0.96354       -0.64443        1.38920
C          1.49963        0.41853        2.35279
C          0.95023        1.83546        2.15062
C         -0.57709        1.95522        2.17129
C         -1.22013        1.67841        3.53515
C         -1.09292        2.83564        4.53247
C         -1.92749        4.07092        4.18821
O         -3.32253        3.82243        4.45887
C         -4.26458        3.47354        3.55243
N         -3.88527        3.36954        2.25465
O         -5.42361        3.24449        3.87751
H          0.64529        0.57687       -0.38449
H          0.86500       -1.14417       -0.70757
H          2.26308       -0.14533       -0.27445
H         -0.10642       -0.80707        1.55969
H          1.45707       -1.59698        1.61654
H          1.30088        0.09087        3.37973
H          2.59214        0.45992        2.25762
H          1.38396        2.49152        2.91426
H          1.31281        2.22109        1.18999
H         -0.83909        2.95988        1.82565
H         -1.01120        1.27164        1.43378
H         -2.27882        1.43971        3.38904
H         -0.77838        0.77989        3.97959
H         -1.41661        2.46466        5.51332
H         -0.04128        3.12456        4.63050
H         -1.63572        4.88308        4.86395
H         -1.75673        4.44869        3.17767
H         -4.59242        3.04662        1.60918
H         -2.95011        3.49345        1.91408
