12

C          0.98642       -0.00971       -0.05973
C          0.25744        0.16789        1.05111
C         -1.24830        0.24444        1.07984
Cl        -1.83367       -1.12153        2.08982
C         -1.78285        1.55582        1.66068
Cl        -1.40569        2.95174        0.61128
H          0.52717       -0.11184       -1.03848
H          2.07054       -0.05549       -0.01075
H          0.77532        0.26545        2.00367
H         -1.66765        0.08106        0.08077
H         -2.87300        1.52427        1.75709
H         -1.35903        1.76620        2.64848
