36

C          1.51690        0.23969        0.31599
C          0.87702        1.56475       -0.06765
C          1.17551        1.99455       -1.50110
C          0.58003        1.10427       -2.59745
P         -1.24997        1.10427       -2.59745
O         -1.21552        1.03997       -4.13514
C         -1.37102       -0.74029       -2.02401
C         -1.89819       -0.96205       -0.60147
C         -3.38432       -0.69377       -0.34029
C         -4.33224       -1.47620       -1.23688
O         -2.97997        1.10427       -2.59745
C         -3.57881        2.35424       -2.92104
C         -3.29588        3.37918       -1.83888
H          1.16450       -0.58228       -0.31190
H          1.27280       -0.00735        1.35448
H          2.60631        0.29223        0.22879
H         -0.20366        1.52776        0.09475
H          1.25966        2.33668        0.61159
H          0.78666        3.01122       -1.63780
H          2.26157        2.05154       -1.64188
H          0.92637        1.54338       -3.54365
H          1.02847        0.10877       -2.56995
H         -2.00242       -1.24315       -2.76416
H         -0.38522       -1.20274       -2.10667
H         -1.70157       -2.00838       -0.33517
H         -1.32311       -0.35455        0.10040
H         -3.60033       -0.96645        0.70059
H         -3.60070        0.37633       -0.40906
H         -4.15850       -2.55261       -1.14548
H         -5.36987       -1.27554       -0.94983
H         -4.22666       -1.19900       -2.28907
H         -3.21797        2.70117       -3.89396
H         -4.65751        2.18991       -3.00218
H         -2.22518        3.59974       -1.77774
H         -3.82722        4.31344       -2.04089
H         -3.59985        3.00166       -0.85739
