42

C          1.05424        0.46318       -0.27452
C          0.79937       -0.67205       -1.25465
C          1.22307       -2.04279       -0.71931
C          0.50896       -2.49317        0.56023
C         -1.01487       -2.61241        0.44389
C         -1.50486       -3.67363       -0.54849
C         -1.08538       -5.11060       -0.21534
C         -1.59376       -5.63301        1.13395
C         -3.11889       -5.74353        1.24887
C         -3.77732       -6.69518        0.23900
C         -3.29396       -8.16116        0.30947
C         -3.65442       -8.80183        1.65215
C         -3.88449       -8.99915       -0.83430
O         -3.33340       -8.61080       -2.08647
H          0.44052        0.36368        0.62559
H          0.80680        1.42359       -0.73753
H          2.10657        0.49237        0.02544
H         -0.25860       -0.68115       -1.53804
H          1.36202       -0.47064       -2.17414
H          1.07352       -2.78999       -1.50738
H          2.30259       -2.02543       -0.52324
H          0.93225       -3.45346        0.87656
H          0.74315       -1.79416        1.37146
H         -1.42486       -2.82361        1.43806
H         -1.43917       -1.64319        0.15838
H         -2.59798       -3.61708       -0.60814
H         -1.14450       -3.42820       -1.55423
H         -1.42866       -5.77119       -1.01984
H          0.00798       -5.18437       -0.22898
H         -1.14010       -6.61229        1.32331
H         -1.22781       -4.98912        1.94156
H         -3.37167       -6.05733        2.26802
H         -3.56740       -4.74972        1.13303
H         -4.86271       -6.66930        0.40324
H         -3.62195       -6.29389       -0.76795
H         -2.20429       -8.17891        0.19314
H         -4.73519       -8.77158        1.82768
H         -3.33704       -9.84968        1.68124
H         -3.15891       -8.29363        2.48464
H         -3.63895      -10.05747       -0.69602
H         -4.97493       -8.91174       -0.88420
H         -3.69059       -7.73559       -2.31305
