20

N          0.76559        0.20464        0.04881
C          0.26303        1.47929        0.12010
O         -0.94859        1.66470        0.06371
C          1.31249        2.58525        0.24804
O          1.41399        3.03642        1.61265
C          1.28690        4.39473        1.70723
O          1.38163        5.05994        2.71915
C          1.04729        4.89387        0.35981
C          0.89116        6.20239       -0.06297
C          0.67546        6.41821       -1.42489
C          0.61130        5.33281       -2.31582
C          0.78335        4.02171       -1.86042
C          1.01235        3.82320       -0.50892
H          0.08797       -0.54818        0.04386
H          1.70883       -0.01839        0.33846
H          2.29698        2.20288       -0.04447
H          0.94143        7.02764        0.64026
H          0.55316        7.43171       -1.80084
H          0.42965        5.51668       -3.37303
H          0.73538        3.18809       -2.55505
