33

C          1.32189        0.08692       -0.08507
C          0.63727        1.44058        0.11155
C          1.01869        2.38321       -1.03281
C         -0.89599        1.30786        0.19576
C         -1.42088        0.49774        1.38950
C         -1.03109        1.03834        2.77023
C         -1.53437        2.45269        3.07976
C         -3.05880        2.59993        3.14490
C         -3.75337        1.75038        4.21719
C         -3.29906        2.02703        5.64741
O         -3.58802        3.36512        6.02533
H          0.95077       -0.41822       -0.98342
H          1.15493       -0.57341        0.77107
H          2.40490        0.21126       -0.19224
H          1.01695        1.88831        1.03684
H          0.66861        2.00228       -1.99797
H          0.58205        3.37578       -0.87922
H          2.10585        2.50478       -1.08976
H         -1.34717        2.30719        0.21629
H         -1.26481        0.83466       -0.72400
H         -2.51328        0.43988        1.31589
H         -1.06913       -0.53737        1.30907
H         -1.39823        0.34289        3.53367
H          0.06015        1.02685        2.87105
H         -1.09782        2.77743        4.03130
H         -1.14781        3.15295        2.33032
H         -3.29773        3.65708        3.31307
H         -3.49310        2.35239        2.16919
H         -4.82969        1.95314        4.15015
H         -3.61995        0.68604        3.99539
H         -3.83759        1.36834        6.33627
H         -2.23018        1.84037        5.78676
H         -3.01142        3.95132        5.50635
