68

C          0.29017        0.51755        1.37296
C          0.41199        0.07943       -0.10236
C          1.22382       -1.23909       -0.15057
C          0.88603       -2.42850        0.75443
C         -0.36547       -3.19740        0.44269
O         -0.42868       -4.24292       -0.18143
O         -1.47993       -2.61425        0.91548
C         -0.97783        0.27311       -0.83456
C         -1.14044        1.79378       -1.11490
C         -0.55424        2.01799       -2.51725
C         -0.53996        0.64672       -3.24268
C          0.89110        0.18354       -3.64781
C          1.52786        1.17102       -4.65350
C          1.87628        0.61261       -6.02438
O          0.70998        0.49038       -6.82300
C          2.63725       -0.70407       -5.88274
C          3.28870       -1.13707       -7.20546
C          3.89089       -2.55274       -7.21703
O          3.37133       -3.23981       -8.36643
C          3.74702       -3.41596       -5.95045
C          2.86253       -2.88199       -4.81958
C          1.79549       -1.83265       -5.25075
C          0.82924       -2.53250       -6.24725
C          1.01662       -1.34646       -3.95729
C         -0.31585       -2.10073       -3.75538
C         -1.02750       -1.76999       -2.46472
C         -1.29949       -0.28652       -2.26830
C         -2.82963       -0.10984       -2.56921
H         -0.31303       -0.18870        1.95121
H         -0.17298        1.50167        1.47950
H          1.28224        0.57866        1.83472
H          1.08895        0.81345       -0.56288
H          1.35077       -1.57496       -1.17356
H          2.24878       -0.95696        0.13758
H          1.70346       -3.15667        0.64665
H          0.88731       -2.16013        1.81407
H         -2.19794       -3.21567        0.62458
H         -1.76220       -0.05404       -0.14010
H         -2.19863        2.07916       -1.09351
H         -0.64852        2.44582       -0.38765
H          0.44957        2.44802       -2.43298
H         -1.16755        2.74239       -3.06602
H         -1.10833        0.74484       -4.17868
H          1.49323        0.32480       -2.73859
H          2.45751        1.54410       -4.20027
H          0.89002        2.05303       -4.78814
H          2.51740        1.34376       -6.53161
H         -0.00173        0.12039       -6.27658
H          3.47433       -0.48518       -5.20004
H          4.09812       -0.42662       -7.42428
H          2.57772       -1.01791       -8.03300
H          4.96106       -2.46211       -7.43464
H          2.98896       -4.09144       -8.09852
H          4.75218       -3.56004       -5.53006
H          3.40550       -4.42755       -6.20063
H          3.52990       -2.42812       -4.07067
H          2.39029       -3.72674       -4.30163
H         -0.03554       -1.91506       -6.49612
H          1.28498       -2.80355       -7.19625
H          0.45556       -3.47647       -5.83234
H          1.65095       -1.70084       -3.13583
H         -0.11977       -3.18029       -3.74207
H         -1.00910       -1.89687       -4.57676
H         -0.44212       -2.16852       -1.66018
H         -1.95665       -2.35428       -2.42197
H         -3.15204        0.93515       -2.60527
H         -3.08210       -0.53630       -3.54849
H         -3.44034       -0.61924       -1.81540
