44

O          1.62837       -0.24513       -0.09461
C          2.79161       -0.17144        0.06605
N          3.95312       -0.07884        0.22338
C          4.67958       -0.92255       -0.63687
C          5.52361       -1.90290       -0.09710
C          6.19948       -2.81708       -0.92230
C          6.05699       -2.74357       -2.30534
O          6.57196       -3.80697       -3.04943
P          6.10696       -4.20274       -4.66809
S          4.07942       -4.10511       -4.29142
O          6.87015       -2.84111       -5.25773
C          8.05285       -2.34246       -4.73635
C          8.21582       -0.95978       -4.79203
C          9.20515       -0.33772       -4.01754
C         10.04560       -1.07838       -3.17577
N         10.97540       -0.36911       -2.38774
C         11.19126       -0.83290       -1.33114
O         11.42548       -1.31330       -0.28297
C          9.93943       -2.47798       -3.21705
C          8.97346       -3.10815       -4.01642
O          5.64195       -4.59851       -6.28674
C          5.68899       -5.91670       -6.68419
C          6.09589       -6.17437       -7.98802
C          6.08974       -7.48832       -8.47522
C          5.66084       -8.56515       -7.68460
N          5.66490       -9.83921       -8.29098
C          5.33903      -10.73960       -7.61304
O          5.01635      -11.63475       -6.92230
C          5.24942       -8.28130       -6.37261
C          5.27100       -6.97260       -5.87508
C          5.35012       -1.66157       -2.84646
C          4.63913       -0.78240       -2.02550
H          5.62642       -1.97979        0.98273
H          6.79802       -3.60283       -0.47158
H          7.53123       -0.34938       -5.37523
H          9.29217        0.74708       -4.03811
H         10.58118       -3.10022       -2.59507
H          8.90562       -4.19058       -3.96613
H          6.40445       -5.36002       -8.63853
H          6.40599       -7.67450       -9.50011
H          4.87402       -9.06275       -5.71359
H          4.89017       -6.81956       -4.87002
H          5.24281       -1.51496       -3.91722
H          4.01888       -0.01832       -2.49038
