23

Cl        -2.92308        0.05835        0.10248
C         -1.30756       -0.55263       -0.00074
C         -1.13420       -1.91865        0.20765
C          0.14252       -2.47030        0.15634
C          1.26906       -1.67686       -0.11644
O          2.42207       -2.43946       -0.11335
C          3.66598       -1.86584        0.00822
C          4.09854       -1.25544        1.19862
Cl         3.06655       -1.23121        2.59230
C          5.37683       -0.67882        1.24404
Cl         5.97308        0.15023        2.63946
C          6.22637       -0.75550        0.13703
C          5.81858       -1.42177       -1.01932
Cl         6.94390       -1.50789       -2.32806
C          4.54027       -1.98831       -1.08791
Cl         4.01024       -2.82995       -2.51043
C          1.09224       -0.30351       -0.38267
Cl         2.40856        0.71720       -0.88709
C         -0.20234        0.26222       -0.29384
Cl        -0.44560        1.97005       -0.54493
H         -1.98827       -2.56034        0.41475
H          0.26419       -3.53953        0.32906
H          7.21586       -0.30234        0.17964
