28

C          0.55215       -0.06323       -0.05926
O          0.93989       -0.35505       -1.40592
C          1.04142        0.80689       -2.13340
C         -0.08208        1.22824       -2.84829
C         -0.02652        2.41078       -3.57767
C          1.14248        3.16759       -3.57089
C          2.27528        2.72205       -2.87569
C          2.26025        1.50687       -2.19497
N          3.35695        0.93614       -1.52354
C          4.70338        1.13187       -1.53194
O          5.37030        0.54108       -0.67480
C          5.38860        2.01452       -2.53487
C          5.30608        1.49673       -3.94825
C          4.88561        2.45495       -5.03105
O          5.57721        0.32825       -4.23009
H         -0.05350       -0.89746        0.30613
H         -0.03933        0.85552        0.03381
H          1.44521        0.01067        0.56939
H         -0.99327        0.63726       -2.83151
H         -0.89564        2.75084       -4.13496
H          1.17534        4.11295       -4.10850
H          3.12843        3.38288       -2.86669
H          3.11995        0.13364       -0.94646
H          5.04505        3.04361       -2.43853
H          6.45675        2.04970       -2.28371
H          5.57868        2.37708       -5.87238
H          3.87415        2.20354       -5.35967
H          4.90261        3.48616       -4.67051
