19

C          1.02438       -0.24337       -0.14042
C          0.45802        0.20905       -1.48590
O          0.86118       -0.82882       -2.43483
P         -1.37198        0.20905       -1.48590
O         -1.45930        1.28402       -0.40091
O         -1.50678        0.82198       -2.99710
O         -3.10198        0.20906       -1.48590
P          1.06802        1.77874       -2.20205
O         -0.24311        2.57467       -2.16250
O          1.82139        2.22227       -0.81419
O          1.64469        3.26265       -2.87907
H          0.64462       -1.23788        0.11850
H          0.75104        0.43924        0.66924
H          2.11665       -0.31622       -0.17662
H          1.82691       -0.93539       -2.37184
H         -1.48235        1.80814       -2.93259
H         -3.35137        1.11238       -1.20842
H          1.23743        2.81515       -0.29552
H          0.95546        3.92087       -2.65607
