22

N          1.07054       -0.01829       -0.21276
S          0.40758       -0.49220       -1.67520
O          1.18234       -1.65149       -2.06370
O         -1.01704       -0.59847       -1.45925
C          0.79648        0.84339       -2.80425
C          0.45518        2.21981       -2.36712
N         -0.57849        2.48746       -1.55717
O         -0.61594        3.86546       -1.42428
C          0.37264        4.42261       -2.17090
C          0.63408        5.78296       -2.31217
C          1.70041        6.12354       -3.15184
C          2.45211        5.13986       -3.80188
C          2.16180        3.77744       -3.63430
C          1.09227        3.41940       -2.79410
H          0.32209        0.16406        0.46065
H          1.75541       -0.70409        0.10758
H          1.87501        0.76722       -2.98597
H          0.28277        0.61165       -3.74316
H          0.03740        6.53171       -1.80533
H          1.94615        7.17317       -3.30373
H          3.27401        5.43584       -4.45165
H          2.75249        3.02676       -4.15076
