32

C          1.18386       -0.06691        0.31483
N          0.65733       -0.41907        1.62410
C          0.43010        0.68389        2.54960
C          0.82148       -1.74215        2.03460
O          1.46371       -2.58090        1.41633
C          0.19919       -2.18560        3.29922
C          1.02991       -2.79488        4.25553
C          0.52232       -3.31342        5.46770
N          1.36543       -3.95568        6.40688
C          2.74251       -4.36172        6.16937
C          1.64083       -5.38027        6.17200
C         -0.86498       -3.14924        5.71719
N         -1.51015       -3.59929        6.97225
O         -0.89889       -4.33656        7.75273
O         -2.67600       -3.21857        7.16324
C         -1.70931       -2.56586        4.74810
C         -1.16819       -2.12208        3.53761
N         -2.08424       -1.65925        2.51323
O         -2.86295       -0.75293        2.83544
O         -2.05559       -2.23518        1.42061
H          0.57688        0.73535       -0.11517
H          1.15468       -0.92542       -0.36283
H          2.21972        0.26575        0.42726
H         -0.59085        0.64661        2.93102
H          1.12926        0.60590        3.38680
H          0.57316        1.64351        2.04358
H          2.09060       -2.86320        4.02425
H          3.21373       -4.13072        5.22792
H          3.36782       -4.29419        7.04991
H          1.48675       -5.98722        7.05369
H          1.30254       -5.78443        5.22751
H         -2.78338       -2.48275        4.91655
