62

C          1.56343        0.66029        0.20725
C          0.58357        1.42242        1.09477
O          0.93563        2.80965        1.06834
C         -0.89991        1.28375        0.67201
N         -1.47363       -0.02034        1.02316
C         -2.55276       -0.02760        2.01114
C         -3.98737        0.12059        1.45153
C         -4.44406       -0.96221        0.47927
O         -4.90723        0.13577        2.55115
C         -1.12632       -1.10857        0.23867
O         -0.63838       -0.96881       -0.88626
C         -1.32657       -2.50915        0.78888
C         -0.54491       -2.80514        2.07495
C         -1.27943       -3.25781        3.36065
C         -2.80522       -3.24129        3.41049
C         -3.50695       -4.50969        3.84702
O         -4.31391       -4.42973        4.77753
N         -3.30965       -5.69504        3.15136
C         -2.72954       -5.77014        1.80350
C         -1.35617       -6.46003        1.70943
C         -1.44549       -7.96935        1.54015
O         -0.64510       -5.92517        0.58655
C         -4.05840       -6.86654        3.61386
C         -3.47492       -7.57836        4.85070
C         -3.69046       -6.85944        6.17619
O         -4.08441       -8.87284        4.94592
H          1.39409        0.89181       -0.84994
H          1.48539       -0.42064        0.35163
H          2.59793        0.94317        0.42819
H          0.70269        1.08277        2.13077
H          1.88510        2.87253        1.27279
H         -1.48229        2.07159        1.16675
H         -1.01248        1.45875       -0.40393
H         -2.48521       -0.93135        2.60182
H         -2.36782        0.77573        2.73650
H         -4.07486        1.09035        0.95126
H         -4.47977       -1.94600        0.95561
H         -5.47041       -0.76489        0.14961
H         -3.81028       -1.01554       -0.40891
H         -5.00159       -0.77066        2.89462
H         -2.38868       -2.71638        0.82205
H         -0.94105       -3.18589        0.01322
H          0.17226       -3.60415        1.83916
H          0.09396       -1.94899        2.32931
H         -0.89537       -4.23718        3.66558
H         -0.92682       -2.58479        4.15694
H         -3.08940       -2.47974        4.15197
H         -3.29505       -2.93336        2.49390
H         -3.45488       -6.25646        1.13901
H         -2.64621       -4.76414        1.39919
H         -0.75385       -6.23311        2.59395
H         -2.04788       -8.23034        0.66308
H         -0.44880       -8.39143        1.37045
H         -1.87855       -8.45162        2.41847
H         -1.03441       -6.28514       -0.22994
H         -5.09846       -6.57140        3.80384
H         -4.11826       -7.58935        2.79075
H         -2.40196       -7.74452        4.70917
H         -4.74139       -6.57558        6.30340
H         -3.44236       -7.51581        7.01669
H         -3.06709       -5.96493        6.25700
H         -5.00524       -8.74006        5.23485
