21

C          0.97453        0.10471        0.03819
C          0.53952       -1.00454        0.94664
C         -0.36880       -0.77660        1.96800
C         -0.76172       -1.85118        2.75682
C         -0.24966       -3.12976        2.50573
C         -0.64434       -4.23285        3.28443
C         -0.13534       -5.50287        3.02491
C          0.77617       -5.67919        1.99072
C          1.16930       -4.57868        1.22143
O          2.07714       -4.77490        0.20517
C          0.67116       -3.28624        1.44778
N          1.05035       -2.23070        0.68867
H          0.67292        1.08434        0.42215
H          0.52798       -0.03210       -0.95154
H          2.06452        0.10269       -0.06122
H         -0.76914        0.21436        2.15245
H         -1.47181       -1.68536        3.56290
H         -1.35636       -4.10589        4.09729
H         -0.45049       -6.35064        3.62779
H          1.16795       -6.67174        1.79169
H          2.37813       -5.69540        0.21544
