30

C          0.63509       -0.24123        0.38197
C         -0.02689       -1.59467        0.39260
O         -0.99123       -1.81771        1.12701
C          0.49095       -2.64267       -0.55277
C         -0.17228       -2.70602       -1.89211
O          0.01855       -3.63080       -2.67396
O         -0.92012       -1.60745       -2.16995
C         -1.44262       -1.52065       -3.50953
C         -0.67367       -0.46389       -4.30362
O          0.73792       -0.76995       -4.34049
C          1.49544       -0.15040       -3.40157
O          1.08265        0.70814       -2.62877
C          2.92093       -0.59504       -3.37151
C          3.26666       -1.81681       -4.16811
C          3.81001       -1.62329       -5.55831
O          3.10800       -2.94426       -3.69933
H          0.68874        0.14145        1.40503
H          0.05468        0.44497       -0.23735
H          1.65654       -0.31308       -0.00077
H          1.56458       -2.48916       -0.70336
H          0.36095       -3.61389       -0.06259
H         -1.40906       -2.48385       -4.03019
H         -2.49691       -1.23334       -3.43323
H         -1.03254       -0.44662       -5.33799
H         -0.85454        0.53359       -3.88671
H          3.55517        0.23814       -3.68701
H          3.17276       -0.82263       -2.32827
H          4.68884       -2.26195       -5.68639
H          3.04516       -1.87939       -6.29371
H          4.12452       -0.58738       -5.70926
