37

N          1.49760        1.22604        0.07094
C          1.03966        2.19386       -0.94655
C          0.96797        1.54741       -2.33583
C          0.31710        0.16436       -2.44830
C         -1.19526        0.14974       -2.34014
O         -1.89382        0.34651       -3.33801
N         -1.83563       -0.03923       -1.14976
C         -1.32863       -0.67129        0.07415
C         -1.40253        0.16923        1.36749
S         -2.89831        1.14763        1.72624
C         -1.88962       -2.09255        0.28402
O         -1.11138       -3.04140        0.43888
N         -3.21323       -2.36804        0.40450
C         -4.40897       -1.53850        0.32362
C         -5.31536       -1.83138       -0.85903
O         -6.49255       -1.52768       -0.93870
O         -4.65470       -2.30028       -1.93549
C         -0.22674        2.93524       -0.48693
O         -0.37735        3.48418        0.59530
O         -1.21536        2.97871       -1.39667
H          2.21803        0.61773       -0.31476
H          1.93718        1.74152        0.83706
H          1.79959        2.98402       -1.01142
H          0.49323        2.23820       -3.04311
H          2.00493        1.43539       -2.68424
H          0.54267       -0.21064       -3.45754
H          0.78218       -0.56692       -1.78585
H         -2.82896       -0.10859       -1.32305
H         -0.26286       -0.85638       -0.08566
H         -1.21001       -0.46849        2.23631
H         -0.60573        0.91006        1.35706
H         -2.92550        1.80688        0.56000
H         -3.37355       -3.35975        0.53960
H         -4.96835       -1.69111        1.25048
H         -4.14415       -0.49576        0.21470
H         -5.31788       -2.28799       -2.65794
H         -1.94522        3.46548       -0.96208
