39

C          1.31867       -0.44916       -0.86424
C          0.45427        0.76343       -1.10648
O         -0.74717        0.64862       -1.35623
C          1.09176        2.12956       -0.95655
C          0.43507        2.97558        0.16153
C          0.81044        2.45799        1.56466
C          0.23857        1.25649        2.02858
C          0.62951        0.68470        3.24409
C          1.56979        1.32761        4.03973
Cl         2.07343        0.61776        5.52224
C          2.10646        2.54336        3.63600
C          1.73152        3.10136        2.40863
C          0.64322        4.48597       -0.03852
C         -0.33671        5.41598       -0.03192
O         -1.68364        5.15393        0.10716
C         -0.02173        6.84787       -0.11130
C         -0.99318        7.85715       -0.08495
C         -0.62328        9.20821       -0.09184
C          0.72338        9.56805       -0.12246
C          1.69846        8.57743       -0.16369
C          1.30896        7.23772       -0.16440
O          2.33128        6.28767       -0.23212
C          2.05550        4.93350       -0.25756
O          2.97451        4.13432       -0.40889
H          1.06529       -1.22681       -1.58890
H          1.15167       -0.82072        0.14935
H          2.37651       -0.20378       -0.98531
H          2.16061        1.98315       -0.77743
H          0.98493        2.62191       -1.93165
H         -0.64199        2.78704        0.08644
H         -0.51321        0.73304        1.43895
H          0.20104       -0.26385        3.55705
H          2.82969        3.06179        4.26055
H          2.19704        4.04519        2.14310
H         -1.87168        4.20383        0.08929
H         -2.05040        7.60327       -0.04654
H         -1.38983        9.97900       -0.06404
H          1.01070       10.61631       -0.11569
H          2.75161        8.84240       -0.19253
