38

C          0.91674        0.01270        0.51917
C          0.19506       -1.23308        0.08130
O         -0.79018       -1.64130        0.69701
C          0.69508       -1.94003       -1.16019
C          0.32020       -1.23415       -2.46382
C          1.17600       -0.01851       -2.85561
C          2.68838       -0.26134       -3.00119
N          3.01234       -1.01349       -4.20912
C          3.32902       -0.27946       -5.35824
O          3.41832        0.94686       -5.39316
C          3.52740       -1.09700       -6.50130
C          3.36463       -2.44925       -6.48621
N          3.55482       -2.99950       -7.71617
C          3.86548       -1.97646       -8.48771
N          3.87745       -0.79967       -7.78654
C          4.22174        0.49894       -8.30720
N          3.05402       -3.12458       -5.33294
C          2.85469       -4.56128       -5.35194
C          2.96889       -2.41959       -4.13589
O          2.84283       -3.00138       -3.05539
H          0.85824        0.10457        1.60659
H          0.45099        0.88430        0.05497
H          1.97215       -0.04156        0.23956
H          1.76819       -2.10587       -1.04673
H          0.23703       -2.93779       -1.16162
H          0.35812       -1.96495       -3.28039
H         -0.72647       -0.90910       -2.40562
H          0.78577        0.37342       -3.80441
H          1.02133        0.77761       -2.12175
H          3.18380        0.71619       -3.04314
H          3.09795       -0.76612       -2.12174
H          4.09294       -2.03425       -9.54469
H          3.35763        1.15876       -8.20094
H          5.07517        0.88353       -7.74240
H          4.49201        0.40830       -9.36234
H          2.10470       -4.80758       -6.11068
H          3.80150       -5.05280       -5.59126
H          2.49543       -4.93154       -4.38740
