26

C          1.73797        0.22149        0.22192
C          0.93671        1.42773        0.56512
N         -0.36104        1.51938        0.36010
C         -0.76276        2.68937        0.93810
C          0.31618        3.34402        1.47692
N          0.28907        4.59142        2.16808
O          1.31544        4.95708        2.73647
O         -0.77704        5.21756        2.12270
N          1.42713        2.59109        1.15116
C          2.84380        2.90995        1.27651
C          3.54209        3.29353       -0.04345
O          3.12507        4.53639       -0.60752
P          1.49758        4.53428       -1.19419
O          1.55521        6.00686       -1.57607
O          1.90447        3.66742       -2.50815
O         -0.12990        4.53218       -1.78085
H          1.23721       -0.34390       -0.57195
H          1.81897       -0.43009        1.09715
H          2.74155        0.46403       -0.12977
H         -1.80342        2.99611        0.93070
H          2.98489        3.69849        2.01121
H          3.32006        2.01359        1.69191
H          4.61484        3.38994        0.15539
H          3.43301        2.51049       -0.79891
H          1.51961        2.77288       -2.47720
H         -0.19437        5.42912       -2.17832
