50

C          1.06000       -0.22895        0.24822
C          0.73971        1.07326        0.96758
C          1.24214        2.32506        0.24107
C          0.76744        2.48963       -1.20439
C         -0.74837        2.46405       -1.40187
C         -1.50867        3.67941       -0.86119
C         -1.31277        4.98228       -1.64789
C         -1.79067        4.97574       -3.10631
O         -3.21603        4.91905       -3.21574
C         -3.83491        3.70583       -3.30221
C         -5.17197        3.69202       -2.90367
C         -5.89598        2.49519       -2.88104
C         -5.28371        1.28640       -3.23979
C         -6.10778        0.04747       -3.16436
O         -7.33371        0.11766       -3.20064
C         -5.49220       -1.28782       -3.03573
C         -5.72779       -2.23188       -4.03908
C         -5.13547       -3.49139       -3.95305
C         -4.33072       -3.81036       -2.85754
C         -4.12023       -2.87448       -1.84197
C         -4.70238       -1.60842       -1.92645
C         -3.95790        1.31627       -3.68368
O         -3.31994        0.17545       -4.08261
C         -3.25431        2.52373       -3.75251
H          0.52442       -0.30693       -0.70274
H          0.75874       -1.08219        0.86458
H          2.13259       -0.31580        0.04917
H         -0.34103        1.14066        1.13444
H          1.20162        1.04478        1.96174
H          0.95366        3.20786        0.82305
H          2.33945        2.30957        0.23663
H          1.17954        3.42024       -1.61084
H          1.20372        1.68622       -1.81116
H         -0.92360        2.35788       -2.47215
H         -1.17019        1.56052       -0.94811
H         -2.57739        3.43993       -0.82915
H         -1.21940        3.85517        0.18151
H         -1.85848        5.77102       -1.11424
H         -0.25357        5.26195       -1.62528
H         -1.50850        5.94261       -3.54155
H         -1.26818        4.23511       -3.71590
H         -5.65478        4.61757       -2.59787
H         -6.93872        2.50922       -2.56846
H         -6.35622       -1.97842       -4.88896
H         -5.30134       -4.22258       -4.73985
H         -3.87163       -4.79395       -2.79306
H         -3.50336       -3.13436       -0.98554
H         -4.54082       -0.88410       -1.13352
H         -2.35906        0.32031       -4.08148
H         -2.25763        2.52009       -4.17373
