15

C          0.94909        0.05912       -0.12405
C          0.18575       -0.89973       -0.66410
C         -1.28258       -0.87600       -0.69824
C         -2.01134        0.30540       -0.84691
C         -3.39457        0.23077       -0.90122
N         -4.08955       -0.92343       -0.82648
C         -3.36600       -2.05472       -0.69751
C         -1.98142       -2.08304       -0.63633
H          0.53373        0.94321        0.34811
H          2.03093       -0.03460       -0.12865
H          0.66361       -1.77640       -1.09635
H         -1.52415        1.27008       -0.93167
H         -3.99755        1.12708       -1.01512
H         -3.94627       -2.97140       -0.64401
H         -1.46701       -3.03232       -0.53266
