28

C          0.93821        0.25809        0.09935
N          0.22120        1.38396        0.71276
C          1.07261        2.51350        1.02755
O          1.12851        3.38835       -0.07908
C         -0.17572        3.87914       -0.31645
N         -1.09929        2.79288       -0.52914
C         -2.05898        2.94246       -1.62070
C         -3.18537        3.90151       -1.39973
C         -3.19645        5.28192       -1.49351
N         -4.42375        5.88997       -1.31690
C         -5.31830        4.95960       -1.09158
Cl        -6.98155        5.31532       -0.87116
S         -4.77781        3.34999       -1.05142
C         -1.05722        1.64608        0.24121
N         -2.12704        0.91963        0.37852
N         -2.01904       -0.13967        1.18978
O         -1.99855        0.03592        2.41741
O         -1.99968       -1.26700        0.67156
H          0.83450        0.28425       -0.99131
H          0.54937       -0.69549        0.46474
H          2.00778        0.26917        0.33449
H          0.69894        3.04089        1.91490
H          2.09489        2.20196        1.26933
H         -0.11553        4.53794       -1.18906
H         -0.50092        4.50002        0.52860
H         -1.51119        3.26860       -2.51586
H         -2.45920        1.96099       -1.90838
H         -2.33555        5.90267       -1.71251
