14

O          1.05396        0.20573        0.63014
N          2.15254        0.09497        0.07461
O          2.65973        0.89340       -0.72076
C          2.88378       -1.12238        0.32739
C          2.49554       -2.25806       -0.38719
C          3.18159       -3.45228       -0.17689
Cl         2.65972       -4.82496       -1.08971
C          4.24579       -3.50978        0.74072
Cl         5.08972       -5.00997        0.98682
C          4.61893       -2.34901        1.45571
Cl         5.93326       -2.41559        2.59654
C          3.93110       -1.13772        1.25058
Cl         4.35665        0.29654        2.12978
H          1.67103       -2.21115       -1.09725
