24

N          1.07621        0.00614       -0.06445
C          2.33718        0.00614       -0.06445
C          3.85718        0.00614       -0.06445
S          4.58229        1.35187       -0.92470
C          6.21869        1.28533       -0.40519
C          7.12527        2.31199       -1.02592
O          6.73667        3.17683       -1.79912
C          8.56951        2.18075       -0.75485
C          9.52326        2.71918       -1.62037
C         10.87634        2.64505       -1.28117
C         11.26709        2.09071       -0.05919
C         10.31539        1.52916        0.78897
C          8.97690        1.52466        0.39740
C          7.99396        0.73427        1.14179
O          8.19385        0.40716        2.30004
C          6.75443        0.36239        0.39811
S          6.20792       -1.25431        0.64848
C          4.57728       -1.23837        0.01818
C          3.81728       -2.55184        0.10538
N          3.18680       -3.64147        0.17773
H          9.22218        3.17570       -2.56159
H         11.62936        3.03218       -1.96451
H         12.31802        2.07215        0.22096
H         10.61843        1.07082        1.72849
