17

O          0.98719        0.29889        0.74093
C          2.12165        0.11524        0.34278
O          2.70564        0.79280       -0.66377
C          3.01856       -0.87384        0.95935
C          4.23821       -0.44365        1.49935
C          5.06246       -1.35384        2.16771
C          4.67101       -2.68793        2.31150
C          3.45378       -3.12277        1.78505
C          2.63459       -2.20641        1.11275
N          1.41550       -2.69646        0.49998
O          0.64790       -3.35277        1.21526
O          1.28883       -2.50256       -0.71637
H          3.56496        0.43933       -0.96353
H          4.53614        0.60165        1.43547
H          6.00608       -1.01924        2.59607
H          5.31532       -3.38830        2.84044
H          3.15614       -4.16397        1.89606
