45

C          0.57571        0.85532        1.23754
C          0.66437        1.84562        0.06655
C          0.87669        1.06192       -1.22848
C         -0.06019       -0.09576       -1.65183
C         -1.56782       -0.04669       -1.82121
C         -2.35839        1.09887       -1.81398
C         -3.74367        1.07079       -2.00584
C         -4.36210       -0.13978       -2.26407
O         -5.70188       -0.21080       -2.49939
C         -3.61415       -1.30331       -2.31356
C         -2.23125       -1.25815       -2.09101
N         -0.48243        2.73538        0.07768
C         -0.54588        3.97278       -0.71088
C         -0.08203        4.20105       -2.19512
C         -0.83632        3.66427       -3.41075
C         -1.92489        4.35260       -3.98256
C         -2.57231        3.86805       -5.13968
C         -2.17447        2.66283       -5.70369
O         -2.76951        2.12179       -6.80726
C         -1.10694        1.97480       -5.15374
O         -0.71505        0.77105       -5.66564
C         -0.41236        2.50018       -4.07304
H         -0.30349        0.20609        1.16039
H          0.52898        1.37341        2.20047
H          1.46203        0.20801        1.25776
H          1.55989        2.45642        0.24252
H          1.00576        1.78272       -2.01969
H          1.87885        0.60955       -1.15861
H          0.32223       -0.41974       -2.63184
H          0.15092       -0.92865       -0.96835
H         -1.91937        2.07317       -1.70811
H         -4.29896        2.00157       -1.97584
H         -6.05655        0.69295       -2.50546
H         -4.09843       -2.24852       -2.54135
H         -1.66257       -2.18221       -2.15794
H         -1.36725        2.24678        0.18040
H         -1.58260        4.32638       -0.63551
H          0.03329        4.69644       -0.12100
H         -0.09666        5.29477       -2.32369
H          0.97915        3.94625       -2.28673
H         -2.25862        5.29769       -3.56010
H         -3.37954        4.44459       -5.58292
H         -3.37438        2.78218       -7.18515
H         -1.41415        0.53719       -6.30693
H          0.46997        1.95454       -3.77545
