17

O          0.99677       -0.12225       -0.43898
C          2.17898        0.06364       -0.16150
C          3.12900        0.83558       -1.03990
C          3.87011        1.90494       -0.27875
C          4.86706        1.56504        0.64763
C          5.53825        2.55894        1.36186
C          5.22736        3.90071        1.15196
C          4.24354        4.25040        0.22954
C          3.56488        3.25816       -0.48001
H          2.62185       -0.40458        0.73442
H          3.84431        0.13139       -1.47891
H          2.55876        1.27453       -1.86679
H          5.13100        0.52431        0.82220
H          6.30562        2.28696        2.08221
H          5.75214        4.67432        1.70651
H          4.00285        5.29741        0.06306
H          2.79660        3.55182       -1.19284
