24

C          1.17538       -0.06199       -0.17928
O          0.75805       -1.42297       -0.27136
C          1.02900       -2.01976       -1.47666
C          2.33976       -1.97160       -1.99909
C          2.67040       -2.65597       -3.16992
Br         4.43541       -2.57502       -3.83472
C          1.69614       -3.39746       -3.80399
C          0.41416       -3.44817       -3.28525
C          0.03511       -2.77725       -2.12193
O         -1.26229       -2.95383       -1.74444
C         -1.79886       -2.17419       -0.68834
C         -0.39324       -4.30465       -4.15933
O         -1.56922       -4.58941       -4.06182
O          0.43694       -4.74209       -5.15620
C          1.77430       -4.23332       -5.01573
H          0.69557        0.37061        0.70416
H          0.85552        0.51427       -1.05411
H          2.25705        0.01364       -0.03507
H          3.11830       -1.42949       -1.46918
H         -1.37982       -2.47803        0.27545
H         -1.67098       -1.10277       -0.87262
H         -2.87533       -2.36866       -0.64833
H          2.45721       -5.07909       -4.89447
H          2.02485       -3.65569       -5.90957
