44

C          0.77817       -0.38089       -0.06593
C          0.35525        0.94190        0.58196
C          0.33475        0.75864        2.10969
S          1.62719        2.23453        0.16131
C          0.45554        3.59430        0.47788
C          0.06899        4.56954       -0.65783
N          0.68324        4.33048       -1.98953
C          1.26446        5.20628       -2.86201
O          1.70832        4.75717       -3.92229
C          1.39606        6.68101       -2.50457
C          0.01345        7.29826       -2.37438
O         -0.46923        7.86573       -1.40638
O         -0.73426        7.15463       -3.48994
C          2.37215        6.95836       -1.35076
C          3.29735        5.99165       -0.91267
C          4.19502        6.26328        0.12273
C          4.20975        7.51779        0.72118
C          3.33730        8.50471        0.27501
C          2.43605        8.23123       -0.75741
C         -1.35332        3.92911       -0.50631
O         -2.41727        3.99772       -1.07723
N         -0.87521        2.98817        0.35738
C         -0.98379        1.54746        0.08686
C         -1.25562        1.12458       -1.37026
O         -1.80675        0.08475       -1.70366
O         -0.68753        1.90251       -2.31523
H          0.94443       -0.28923       -1.14511
H          0.01382       -1.15015        0.09087
H          1.71087       -0.75964        0.36911
H         -0.40583        0.00032        2.39067
H          1.30636        0.42087        2.48944
H          0.06991        1.67954        2.64098
H          0.59169        4.07343        1.45425
H          0.09663        5.61004       -0.33206
H          0.62633        3.38207       -2.36304
H          1.85188        7.17297       -3.37697
H         -1.60944        7.53465       -3.26022
H          3.34945        5.00559       -1.37114
H          4.89116        5.49499        0.45090
H          4.91164        7.73146        1.52229
H          3.35963        9.49367        0.72612
H          1.78114        9.03538       -1.08786
H         -1.83708        1.18850        0.67452
H         -0.96162        1.48366       -3.16172
