28

C          1.26603       -0.00752        0.23124
C          0.72163       -1.30835        0.82134
O          0.86321       -1.20641        2.25538
C         -0.79045       -1.49823        0.56119
C         -1.34949       -1.35392       -0.86564
C         -1.17253       -2.50746       -1.87932
C         -1.64999       -3.85861       -1.34884
O         -2.00916       -2.19672       -3.01571
C          0.25784       -2.52457       -2.43857
O          0.84819       -1.57240       -2.92788
O          0.89903       -3.70533       -2.32158
C          1.56947       -2.51415        0.38324
O          2.62296       -2.48129       -0.23191
O          1.07206       -3.69872        0.79404
H          0.72708        0.85803        0.63280
H          1.20562        0.01583       -0.85922
H          2.31953        0.13315        0.50188
H          1.80788       -1.06703        2.44786
H         -1.13377       -2.44253        1.00053
H         -1.30625       -0.73508        1.16469
H         -2.43277       -1.19572       -0.75173
H         -0.99848       -0.41413       -1.30955
H         -2.70561       -3.81273       -1.05774
H         -1.57979       -4.62853       -2.12657
H         -1.07193       -4.20485       -0.48994
H         -2.93321       -2.17328       -2.71526
H          1.78767       -3.50359       -2.69092
H          1.69749       -4.36697        0.44434
