40

O          0.99090       -0.23415        1.16530
C          2.09264        0.02511        0.72046
O          2.68826        1.23382        0.80155
C          2.95221       -0.96751        0.05409
C          4.21327       -1.23623        0.61409
C          5.03604       -2.21484        0.05408
C          4.59948       -2.93808       -1.05183
C          3.33629       -2.69004       -1.59021
C          2.50426       -1.69682       -1.04912
C          1.18097       -1.50329       -1.68049
O          0.52844       -2.43503       -2.12439
O          0.90528       -0.18549       -1.81422
C         -0.33171        0.13339       -2.47940
C         -0.08897        0.55989       -3.92674
O          0.36664       -0.53944       -4.73723
C          1.70893       -0.61846       -4.87735
O          2.56072        0.07076       -4.33790
C          2.06755       -1.73525       -5.75955
C          2.10961       -3.01474       -5.18767
C          2.74383       -4.06310       -5.85259
C          3.31590       -3.84236       -7.10195
C          3.21060       -2.58629       -7.70579
C          2.57612       -1.52044       -7.04404
C          2.47375       -0.23920       -7.78201
O          3.01507       -0.00013       -8.84676
O          1.63791        0.64900       -7.22486
H          3.51159        1.31318        0.28102
H          4.54410       -0.71101        1.50814
H          6.00853       -2.43029        0.49141
H          5.23239       -3.70741       -1.48942
H          3.00431       -3.28448       -2.43537
H         -1.04105       -0.70045       -2.43447
H         -0.77645        0.96907       -1.92844
H         -1.03168        0.90334       -4.36633
H          0.61144        1.40260       -3.97464
H          1.67330       -3.19039       -4.20936
H          2.81147       -5.04283       -5.38470
H          3.83785       -4.64889       -7.61220
H          3.64067       -2.43777       -8.69546
H          1.65858        1.41781       -7.83281
