38

C          1.33222       -0.27794       -0.36745
O          0.46947       -0.42725        0.75043
C          0.94965       -1.18380        1.78159
C         -0.01599       -1.89930        2.48554
C          0.32883       -2.61475        3.63123
C          1.63591       -2.57148        4.12925
C          1.95463       -3.20050        5.46111
C          1.88444       -2.30837        6.72057
N          2.87173       -1.20864        6.78902
C          2.43167       -0.35298        7.90535
C          0.94728       -0.64101        8.18899
O          0.11691        0.50797        8.19287
C          0.54207       -1.67362        7.12997
O         -0.36023       -1.23091        6.08972
C         -0.51192       -0.03838        5.47848
C          0.68827        0.82028        5.23685
O         -1.61259        0.28822        5.03358
C          2.61609       -1.89927        3.38738
C          2.27418       -1.20623        2.21810
H          0.81259        0.34820       -1.09973
H          1.52759       -1.24978       -0.83108
H          2.26446        0.23190       -0.11055
H         -1.05399       -1.87247        2.16255
H         -0.45441       -3.14112        4.17380
H          1.29199       -4.06358        5.61065
H          2.96367       -3.63265        5.39775
H          2.16775       -2.97853        7.54766
H          2.84101       -0.67970        5.91888
H          2.62465        0.70188        7.68778
H          3.02378       -0.60894        8.79176
H          0.87277       -1.10399        9.18130
H          0.59254        1.24110        8.61840
H         -0.04110       -2.45106        7.64077
H          1.47998        0.25721        4.75290
H          0.41010        1.61439        4.53456
H          1.04228        1.31113        6.13837
H          3.64694       -1.87548        3.73619
H          3.04986       -0.64789        1.70576
