15

C          0.77518        0.09531        0.01872
C          0.54198       -0.10295       -1.46656
O          1.14530       -1.27414       -1.99066
S          2.75959       -1.48879       -2.05897
C          3.21258       -0.09314       -3.06782
O          3.33016       -1.31134       -0.74163
O          3.01260       -2.68797       -2.83168
H          0.59757       -0.83100        0.57321
H          0.11557        0.87691        0.40774
H          1.80338        0.41031        0.21733
H         -0.53531       -0.21571       -1.63165
H          0.84853        0.77834       -2.03685
H          3.02580        0.83051       -2.51879
H          4.28086       -0.17232       -3.28238
H          2.64319       -0.12604       -3.99797
