45

C          1.10796        0.24479        0.20944
C          0.78498        1.71768        0.19750
O          0.24058        2.22451       -0.77394
C          1.17478        2.55915        1.37923
C          2.24143        2.15531        2.21591
C          2.48435        2.88637        3.37613
C          1.83009        4.13543        3.59986
C          0.83889        4.58212        2.72114
C          0.40928        3.71392        1.70373
C         -1.03793        3.88994        1.29660
C          1.73647        4.61310        5.16280
C          2.41461        4.57492        6.63538
C          2.90531        5.63531        4.70990
C          1.40972        2.99195        5.26179
C          0.53124        2.46793        6.40876
C          2.75005        2.36912        4.76600
C          3.20830        1.00006        5.24973
C          2.47543       -0.21761        4.72379
C          4.72752        0.86010        5.02632
H          0.55978       -0.24265       -0.60441
H          0.78628       -0.21524        1.14675
H          2.17638        0.09402        0.04186
H          2.73874        1.20361        2.06540
H          0.23032        5.44022        3.00084
H         -1.65623        3.67087        2.18043
H         -1.24145        4.91735        0.98481
H         -1.38475        3.21041        0.51985
H          3.51428        4.54389        6.63500
H          2.08429        5.45894        7.19391
H          2.15686        3.75161        7.30042
H          2.65640        6.26090        3.84105
H          3.09649        6.40147        5.47921
H          3.87628        5.14611        4.52404
H          0.60216        2.74473        4.52825
H          1.06893        2.07525        7.26846
H         -0.16063        3.26223        6.72239
H         -0.11204        1.65326        6.04231
H          3.57053        3.00523        5.11690
H          3.07219        1.01231        6.34049
H          2.82025       -0.49996        3.72523
H          2.67733       -1.07013        5.38460
H          1.39478       -0.06371        4.69924
H          5.26480        1.77002        5.32542
H          5.13486        0.04568        5.63336
H          4.96601        0.66917        3.97577
