27

N          2.35629       -0.03967       -0.07911
C          0.96482       -0.03235        0.06457
C          0.22438       -1.18471       -0.21310
C         -1.17205       -1.15505       -0.20321
C         -1.83657        0.04781        0.05017
S         -3.61246        0.03166        0.02433
O         -4.00850       -0.55429       -1.24330
O         -4.02526       -0.56721        1.28040
C         -4.22872        1.70259        0.00896
C         -4.13669        2.45520       -1.16754
C         -4.62781        3.76238       -1.18549
C         -5.21821        4.29909       -0.03991
Cl        -5.82298        5.90929       -0.06668
C         -5.32581        3.53977        1.12618
C         -4.83233        2.23379        1.15362
C         -1.11376        1.21942        0.27518
C          0.28442        1.17494        0.25556
H          2.78253       -0.94561        0.09203
H          2.82892        0.70519        0.42339
H          0.73075       -2.11951       -0.44086
H         -1.73296       -2.06555       -0.40503
H         -3.69294        2.03249       -2.06705
H         -4.55602        4.35417       -2.09495
H         -5.79837        3.95633        2.01260
H         -4.92997        1.64243        2.06218
H         -1.59935        2.17299        0.45582
H          0.84439        2.09713        0.39309
