33

C          0.71296       -0.04713       -0.07684
C          0.36240        1.35956        0.36931
O          0.93883        2.34649       -0.48127
P          2.66883        2.34649       -0.48127
S          2.62851        2.60471       -2.48862
O          2.66783        3.76987        0.35627
C          1.54989        4.55222        0.73614
C          0.91122        5.31605       -0.41026
N          4.44883        2.34649       -0.48127
C          5.13898        1.17975       -0.39266
O          4.70072        0.06020       -0.21576
C          6.55687        1.53419       -0.50258
C          7.69324        0.75073       -0.52731
C          8.92540        1.41036       -0.63420
C          8.99462        2.81748       -0.70632
C          7.83184        3.58881       -0.68384
C          6.63047        2.91277       -0.58786
C          5.27005        3.43584       -0.56223
O          5.04501        4.62949       -0.59562
H          0.44421       -0.20269       -1.12591
H          0.19285       -0.78686        0.53868
H          1.78834       -0.23101        0.01103
H         -0.72267        1.49746        0.34256
H          0.69821        1.53103        1.39703
H          0.81778        3.94656        1.27725
H          1.92013        5.28415        1.46243
H          0.50817        4.65273       -1.17904
H          0.08476        5.93117       -0.03967
H          1.64191        5.96702       -0.89890
H          7.63496       -0.33122       -0.47475
H          9.84750        0.83201       -0.66499
H          9.96363        3.30768       -0.78642
H          7.86204        4.67257       -0.74486
