30

C          1.28518       -0.36185        1.55631
C          0.68739        0.89154        1.46795
C         -0.68179        0.99440        1.20625
C         -1.47042       -0.15082        1.02227
S         -3.20118        0.10803        0.65719
C         -3.73062       -1.41096       -0.21609
C         -3.53541       -1.43135       -1.73522
S         -1.85913       -1.84756       -2.34187
C         -0.98243       -0.29007       -2.35465
C          0.41259       -0.34216       -2.21708
C          1.17538        0.82844       -2.18282
C          0.55265        2.06722       -2.29492
C         -0.82804        2.13245       -2.46435
C         -1.58830        0.95928       -2.50792
C         -0.86241       -1.40236        1.15214
C          0.50954       -1.50765        1.40433
H          2.35261       -0.44597        1.73986
H          1.28544        1.79112        1.58359
H         -1.12367        1.98507        1.12165
H         -3.35411       -2.31860        0.26079
H         -4.81486       -1.43793       -0.04770
H         -4.15625       -2.25429       -2.11201
H         -3.93988       -0.53688       -2.21436
H          0.91844       -1.29866       -2.10637
H          2.25211        0.76855       -2.04842
H          1.13972        2.98004       -2.24754
H         -1.31979        3.09703       -2.55483
H         -2.65787        1.05792       -2.65199
H         -1.42589       -2.32178        1.05013
H          0.97054       -2.48948        1.47308
