18

F          1.30706        0.07836        0.23381
C          2.60217       -0.09348       -0.06001
F          3.32078        0.64647        0.80681
F          2.91220       -1.38182        0.18652
N          2.89954        0.25057       -1.40497
C          2.03526       -0.49872       -2.30036
F          2.63213       -0.40823       -3.52825
F          2.08618       -1.82049       -1.99431
C          0.52501       -0.04336       -2.48807
F         -0.22819       -0.34157       -1.40580
F         -0.03761       -0.70802       -3.52947
O          0.35756        1.34158       -2.75312
C          1.08657        2.09672       -1.79679
F          0.41982        2.02512       -0.62306
F          1.01720        3.39311       -2.19140
C          2.59807        1.65073       -1.63896
F          3.21668        2.42083       -0.70817
F          3.22850        1.96166       -2.81291
