12

O          1.17804       -0.55085        0.18394
C          2.32895       -0.15377        0.05844
O          2.93435       -0.14067       -1.15810
C          3.18288        0.30824        1.13021
O          2.80884       -0.02544        2.41340
C          3.73561        0.48620        3.26370
C          4.69663        1.15936        2.55784
Br         6.17562        2.04860        3.28475
C          4.34825        1.05187        1.19742
Br         5.30663        1.82243       -0.22429
H          3.86708        0.14294       -1.14214
H          3.56690        0.28956        4.31371
