31

C          1.49292        0.15588        0.16917
C          0.60767        1.32618       -0.27471
C          1.11141        1.88839       -1.61102
O         -0.78637        0.97374       -0.29102
C         -1.30831        0.14597       -1.33346
C         -1.04383       -1.34250       -1.08112
C         -1.74635       -2.23602       -2.09804
C         -3.24482       -1.97154       -2.14038
C         -3.54030       -0.49536       -2.38204
C         -2.82622        0.39539       -1.36866
C          0.73775        2.43386        0.79339
O          1.23027        2.32828        1.90836
O          0.23189        3.62802        0.41220
H          1.72078       -0.51529       -0.66367
H          1.00118       -0.43461        0.95034
H          2.45920        0.49770        0.55677
H          1.16193        1.11281       -2.38250
H          0.44487        2.67038       -1.99177
H          2.11563        2.31521       -1.50865
H         -0.90203        0.44428       -2.30498
H          0.02238       -1.56362       -1.13305
H         -1.35855       -1.60574       -0.06318
H         -1.56249       -3.28773       -1.85108
H         -1.31509       -2.06214       -3.09183
H         -3.69751       -2.28637       -1.19217
H         -3.70352       -2.57688       -2.93034
H         -4.62156       -0.32538       -2.32817
H         -3.22376       -0.22105       -3.39575
H         -3.25047        0.23000       -0.36913
H         -3.02130        1.44977       -1.60023
H          0.35906        4.19117        1.20357
