27

O          1.30908       -0.14353        0.12395
C          2.53165        0.02959        0.13471
C          3.12929        0.69392        1.31531
C          2.68934        0.31682        2.59245
C          3.20854        0.94623        3.72581
C          4.15230        1.96255        3.58176
C          4.56098        2.34885        2.30865
F          5.45570        3.33665        2.17787
C          4.05416        1.73288        1.17076
N          3.31243       -0.28310       -0.97155
O          2.53284       -0.60929       -2.11988
C          4.68035       -0.63522       -1.08215
C          5.27470       -0.66902       -2.35373
C          6.62143       -1.00669       -2.51454
C          7.39360       -1.33137       -1.40405
C          6.81593       -1.32795       -0.13767
C          5.46752       -0.98801        0.02156
H          1.93920       -0.46442        2.70408
H          2.87078        0.65125        4.71650
H          4.56304        2.46557        4.45213
H          4.38078        2.07525        0.19375
H          1.63416       -0.67521       -1.73132
H          4.69286       -0.41444       -3.23740
H          7.06213       -1.01624       -3.50814
H          8.44030       -1.59767       -1.52648
H          7.41141       -1.60226        0.72988
H          5.05421       -1.05100        1.02243
