17

S          1.19820        0.14608        0.18068
C          2.78589        0.03612        0.14981
N          3.95699       -0.05550        0.14256
C          4.61298        0.54262       -1.03571
C          4.35851       -0.21458       -2.31945
C          3.68254        0.39349       -3.38609
C          3.41630       -0.32407       -4.55311
C          3.82340       -1.65236       -4.66496
C          4.50137       -2.26444       -3.61245
C          4.76941       -1.54931       -2.44494
H          4.32853        1.59927       -1.14057
H          5.69569        0.54780       -0.85536
H          3.34923        1.42637       -3.31397
H          2.88510        0.15143       -5.37366
H          3.60896       -2.21199       -5.57158
H          4.81549       -3.30141       -3.69780
H          5.28937       -2.04044       -1.62471
