35

C          1.38983        0.07486       -0.60554
C          0.38936       -0.79936       -1.35273
C          0.71673       -2.27971       -1.17999
C         -1.04433       -0.42540       -0.96942
O         -1.60863        0.51143       -1.53434
C         -1.72564       -1.16143        0.07814
C         -2.68582       -2.19543       -0.06622
C         -3.23999       -2.76554       -1.34508
C         -3.04211       -4.28077       -1.43287
C         -4.71637       -2.40484       -1.52397
N         -3.09409       -2.66776        1.11764
N         -2.45606       -1.91286        2.04476
C         -2.57136       -2.01827        3.43219
C         -1.88239       -1.18931        4.23334
C         -1.03512       -0.17769        3.62613
C         -0.91307       -0.06856        2.28953
C         -1.62176       -0.96917        1.43992
H          1.44962       -0.19843        0.45236
H          1.11284        1.13285       -0.66299
H          2.39220       -0.03590       -1.03270
H          0.47599       -0.57467       -2.42458
H          0.69799       -2.58266       -0.12772
H          0.00044       -2.90423       -1.72347
H          1.71560       -2.50090       -1.57124
H         -2.69270       -2.32135       -2.18663
H         -3.60480       -4.80859       -0.65471
H         -3.37835       -4.65915       -2.40418
H         -1.98544       -4.54553       -1.31646
H         -4.85971       -1.31888       -1.49439
H         -5.09077       -2.76719       -2.48732
H         -5.33721       -2.84334       -0.73455
H         -3.23560       -2.79051        3.79557
H         -1.95285       -1.24447        5.31389
H         -0.51128        0.50596        4.28818
H         -0.29557        0.71255        1.85777
