24

C          0.91528        0.07552        0.10517
O          0.50650        1.37077       -0.33235
C          0.86532        2.39724        0.49860
C          2.19037        2.52671        0.94038
C          2.57832        3.64820        1.67562
N          3.90142        3.76866        2.10643
C          4.37360        4.85491        2.81213
O          5.53646        4.92145        3.18280
C          3.35910        5.98721        3.10937
O          3.68976        7.00352        3.70240
N          2.06587        5.79219        2.67136
C          1.65689        4.65780        1.96657
C          0.33549        4.54393        1.54364
C         -0.05880        3.41073        0.80717
N         -1.46585        3.32021        0.39657
O         -2.09926        4.38488        0.32717
O         -1.95964        2.20278        0.19993
H          0.36780       -0.66424       -0.48673
H          0.67226       -0.08629        1.16099
H          1.98266       -0.08264       -0.07662
H          2.93247        1.77856        0.67829
H          4.58382        3.04692        1.91412
H          1.42164        6.54676        2.87204
H         -0.37998        5.32979        1.77752
