15

N          0.92127        0.03716        0.00453
C          0.48622       -0.69469       -1.19076
C          0.95988       -2.16117       -1.20542
O          0.48703       -2.83280       -0.03357
C          0.45111       -2.90886       -2.44345
O          0.97310       -2.35769       -3.64669
H          0.45708       -0.34249        0.82767
H          1.92502       -0.07266        0.13884
H         -0.60870       -0.65675       -1.22062
H          0.85940       -0.16677       -2.07428
H          2.05646       -2.18918       -1.19688
H          0.95386       -2.43561        0.72106
H          0.76121       -3.95832       -2.39170
H         -0.64411       -2.91097       -2.48901
H          0.37635       -1.64317       -3.92855
