32

C          2.54122       -0.24821       -0.01233
C          1.05313       -0.01585       -0.00393
C          0.29027       -1.21418        0.00445
C         -1.11160       -1.23007       -0.00025
C         -1.85257       -2.49704        0.02070
C         -2.73087       -2.84374       -1.00127
C         -3.41232       -4.06409       -0.96110
C         -3.26388       -4.99472        0.09008
N         -4.06341       -6.14070       -0.10027
C         -4.04120       -7.02229        0.66720
O         -4.05829       -7.93590        1.40817
C         -2.37823       -4.65147        1.13538
C         -2.05955       -5.45552        2.36843
C         -1.69341       -3.40838        1.07410
C         -1.76771       -0.00319       -0.01833
C         -1.03504        1.18778       -0.02378
C          0.37626        1.22370       -0.01774
N          0.87253        2.54365       -0.03295
C          2.02239        2.75290       -0.00596
O          3.16806        3.01913        0.01804
H          2.82136       -0.86055        0.85285
H          2.82324       -0.78469       -0.92541
H          3.15578        0.64319        0.03372
H          0.81794       -2.16992        0.00305
H         -2.88683       -2.17781       -1.84732
H         -4.08693       -4.30267       -1.78370
H         -0.97784       -5.62438        2.42634
H         -2.37416       -4.90034        3.25942
H         -2.52377       -6.43315        2.42429
H         -1.01899       -3.14219        1.89030
H         -2.85462        0.04382       -0.01472
H         -1.58529        2.12897       -0.03142
