15

O          1.01627       -0.03952        0.16860
C          0.26944        0.68997        1.06437
C          0.70215        1.96371        1.44928
C         -0.04326        2.71076        2.35685
C         -1.23014        2.20756        2.89795
C         -1.65573        0.92751        2.50237
S         -3.06118        0.05738        2.99473
C         -2.60049       -1.24245        1.98336
N         -1.48737       -1.09072        1.30654
C         -0.92971        0.15200        1.59213
H          1.80781        0.46493       -0.07327
H          1.61923        2.38463        1.04735
H          0.30022        3.70059        2.65124
H         -1.80892        2.79277        3.60656
H         -3.19914       -2.14081        1.90937
