11

C          0.62324        1.00984       -0.00361
C          1.18825       -0.20790        0.00474
C          0.12071       -1.26250        0.01084
C         -1.12998       -0.43312        0.00543
C         -0.81117        0.86893       -0.00319
H          1.14157        1.95657       -0.00946
H          2.24863       -0.40919        0.00687
H          0.18171       -1.89312       -0.88079
H          0.18122       -1.88253        0.90987
H         -2.13146       -0.83559        0.00816
H         -1.50277        1.69763       -0.00870
