47

C          0.81067       -1.17492       -0.52721
C         -0.08851        0.01254       -0.68393
O         -1.25335       -0.04490       -1.04763
O          0.56761        1.14113       -0.30411
C         -0.20457        2.34943       -0.30413
C          0.69231        3.55972       -0.54699
C          0.16357        4.76793       -0.84188
C         -1.31626        4.98080       -0.91598
O         -1.90735        5.55919       -1.80949
O         -1.94838        4.53675        0.18536
N          0.89925        5.91959       -0.97611
C          0.79220        6.91047       -0.02976
O         -0.17235        7.33622        0.56970
C          2.33841        6.88220        0.21627
N          2.68605        6.22433        1.50841
C          3.25562        6.77559        2.62098
O          3.29449        6.08482        3.64399
C          3.89160        8.18569        2.57677
N          5.01467        8.14402        1.60744
C          2.90903        9.32563        2.33399
C          3.33006       10.54846        1.77989
C          2.43388       11.60297        1.58484
C          1.09873       11.46026        1.94649
C          0.66382       10.26982        2.51898
C          1.56296        9.22032        2.72798
C          2.34762        5.99991       -1.05800
S          3.29368        4.48348       -1.04075
C          2.15263        3.32727       -0.30338
H          0.50386       -1.95767       -1.22612
H          0.74733       -1.54565        0.49878
H          1.84426       -0.90394       -0.76213
H         -0.99236        2.30814       -1.06329
H         -0.64963        2.42883        0.69468
H         -2.86412        4.87019        0.07370
H          2.82541        7.84567        0.05531
H          2.29636        5.31304        1.71556
H          4.32496        8.35380        3.57193
H          5.62999        8.93064        1.80793
H          5.57560        7.31652        1.81982
H          4.36491       10.69960        1.48469
H          2.78119       12.53586        1.14841
H          0.39836       12.27541        1.78651
H         -0.37975       10.15048        2.80087
H          1.17866        8.31186        3.18944
H          2.62323        6.59657       -1.93984
H          2.46004        2.36767       -0.72987
H          2.33854        3.26773        0.77398
