42

O          1.62564        2.51805       -2.90446
C          1.38668        1.50760       -3.53764
C          2.19857        0.30982       -3.08586
C          1.27574       -0.89070       -2.95739
C          0.04956       -0.38517       -2.15381
C         -0.91357        0.34691       -2.77267
C         -1.16437        1.91876       -2.55711
C         -0.57981        3.37820       -3.47704
C          0.43142        3.72120       -5.01216
C          0.44829        3.15311       -6.78542
C         -0.61497        2.23651       -7.78171
C         -2.19980        2.36621       -7.90474
C         -2.75347        3.50647       -7.12284
C         -1.94419        3.50478       -5.85668
C         -1.35667        1.92332       -5.29557
C          0.32322        1.28996       -4.88568
H          3.06226        0.20701       -3.74523
H          2.60101        0.54465       -2.08164
H          1.05234       -1.26849       -3.96034
H          1.81078       -1.69117       -2.43576
H          0.35854       -0.08668       -1.15535
H         -1.31803       -0.07819       -3.69634
H         -2.26587        1.99507       -2.60221
H         -0.94624        2.12319       -1.50371
H         -1.48779        3.98419       -3.54363
H         -0.05522        3.95539       -2.70039
H          0.31813        4.81335       -5.11003
H          1.49141        3.65746       -4.73897
H          0.64774        4.06506       -7.35938
H          1.40857        2.62195       -6.91832
H         -0.25264        2.37103       -8.80851
H         -0.42038        1.16549       -7.60003
H         -2.54307        2.39940       -8.94388
H         -2.71355        1.46923       -7.51928
H         -2.61415        4.43958       -7.69490
H         -3.82203        3.44925       -6.89347
H         -2.49014        4.06599       -5.09577
H         -1.20949        4.25203       -6.16386
H         -2.09405        1.73918       -4.52379
H         -1.68900        1.13401       -5.96446
H          1.04689        1.38571       -5.68119
H          0.16480        0.21672       -4.99426
