27

C          0.26998        0.35311       -0.48084
C         -0.25461       -1.03734       -0.70296
N          0.66798       -0.74862        0.39386
C          2.01552       -1.17812        0.31868
N          2.81828       -0.75212        1.28376
C          4.07251       -1.18082        1.25514
N          4.92201       -0.69891        2.28270
C          6.34096       -1.07097        2.27428
C          5.39567       -1.67696        3.26524
N          4.53401       -2.01475        0.32821
C          3.68511       -2.38299       -0.62358
N          4.20628       -3.25462       -1.61703
C          3.31204       -4.28697       -2.16277
C          3.70434       -3.11110       -2.99195
N          2.41725       -1.97646       -0.66789
H         -0.35412        1.07492        0.02709
H          1.04758        0.73944       -1.12473
H         -1.25201       -1.27595       -0.36279
H          0.13099       -1.60936       -1.53458
H          6.68719       -1.67774        1.44904
H          6.98890       -0.26854        2.59568
H          5.37371       -1.28819        4.27346
H          5.04495       -2.68903        3.11881
H          3.81559       -5.22963       -2.32539
H          2.31916       -4.33049       -1.73728
H          2.99054       -2.31669       -3.15885
H          4.48140       -3.23339       -3.73345
