26

C          0.57689        0.05419        0.14782
C          0.43722        0.36814       -1.30948
C          0.77914        1.57525       -1.83199
C          0.61999        1.89640       -3.32108
C         -0.28262        0.88025       -3.94918
C          0.35905       -0.48107       -3.62806
C         -0.06088       -0.77234       -2.21938
C         -0.23013       -0.20592       -4.98775
C         -1.50950       -0.91094       -5.35315
C          0.71692       -0.01929       -6.14483
H         -0.24437       -0.58492        0.48707
H          0.56206        0.96180        0.76009
H          1.52074       -0.46995        0.32960
H          1.16959        2.36611       -1.19842
H          1.60402        1.92995       -3.80090
H          0.16700        2.88901       -3.42120
H         -1.30009        1.09430       -3.61535
H          1.44383       -0.60195       -3.66867
H          0.39536       -1.71766       -1.90442
H         -1.14787       -0.87786       -2.12301
H         -2.04355       -0.34970       -6.12737
H         -1.29547       -1.91214       -5.74131
H         -2.18155       -1.01987       -4.49547
H          1.64545        0.47672       -5.84241
H          0.98417       -0.98960       -6.57649
H          0.25089        0.58983       -6.92592
