27

C          0.56715        0.30729       -0.62013
C          0.07220       -1.14259       -0.75838
C          1.23637       -2.14178       -0.46461
O          1.17201       -3.36549       -0.47071
O          2.42658       -1.56287       -0.21277
N         -1.29880       -1.42832       -0.11802
C         -1.54142       -2.86630        0.14962
C         -0.97652       -3.42850        1.48893
C         -1.48319       -2.65581        2.69584
N         -1.90351       -2.01480        3.69708
C         -1.71078       -0.64082        1.12554
C         -0.97651       -1.29674        2.59259
C          0.54349       -1.29674        2.59259
N          1.80445       -1.29674        2.59259
H          0.77803        0.57567        0.42020
H         -0.15589        1.01564       -1.02998
H          1.50647        0.45743       -1.16965
H         -0.09069       -1.29164       -1.83465
H          3.00053       -2.26998        0.15440
H         -2.63172       -2.99489        0.16785
H         -1.21388       -3.48055       -0.69722
H         -1.37641       -4.44740        1.58789
H          0.10522       -3.55915        1.52264
H         -1.44048        0.41839        1.02429
H         -2.79961       -0.69732        1.23918
H         -1.03943       -0.28474        3.11638
H         -0.33910       -1.28901        1.66309
