15

C          2.22576       -0.69517       -0.00068
C          2.20653        0.70060       -0.00158
C          1.00002        1.40916       -0.00104
C         -0.17792        0.65583        0.00014
N         -1.49751        1.02483        0.00126
N         -2.35932       -0.00858        0.00128
C         -1.55796       -1.07752        0.00077
C         -0.18771       -0.73439        0.00048
C          1.03332       -1.43008        0.00031
H          3.17825       -1.22039       -0.00084
H          3.14692        1.24812       -0.00267
H          0.98727        2.49392       -0.00163
H         -1.87534        1.96490        0.00205
H         -2.00100       -2.06471        0.00056
H          1.05629       -2.51553        0.00092
