33

C          1.00646        0.28531        0.06618
C          0.39515       -0.82640       -0.36277
C         -1.04726       -1.09318       -0.19247
O         -1.48717       -2.22989       -0.11642
O         -1.76110        0.05700       -0.19444
C         -3.18665       -0.05705       -0.02208
C         -3.92447        0.10160       -1.36678
C         -3.60452       -1.03570       -2.36622
C         -4.15133       -2.40768       -1.99032
C         -5.45104        0.23933       -1.17594
C         -5.92860        1.49579       -0.43585
C         -5.48808        2.83271       -1.03595
C         -5.94263        3.03510       -2.47315
H          0.46579        1.08129        0.56885
H          2.07706        0.40849       -0.06102
H          0.95538       -1.63378       -0.82073
H         -3.46307       -0.98173        0.49613
H         -3.45791        0.76326        0.64984
H         -3.54194        1.01376       -1.84207
H         -4.01441       -0.76602       -3.34819
H         -2.52106       -1.10690       -2.51059
H         -5.24148       -2.43683       -2.07956
H         -3.74676       -3.16769       -2.66664
H         -3.88728       -2.69513       -0.97013
H         -5.94113        0.20734       -2.15708
H         -5.82746       -0.63058       -0.62269
H         -7.02576        1.47213       -0.40394
H         -5.60118        1.45448        0.60917
H         -5.90775        3.63945       -0.42262
H         -4.39951        2.93738       -0.97665
H         -7.02940        2.93651       -2.55891
H         -5.66583        4.03703       -2.81678
H         -5.47484        2.31298       -3.14870
