26

O          1.21253       -0.03724       -0.47784
C          2.39315        0.00815       -0.16669
O          3.17490        1.06697       -0.46856
C          3.11203       -1.09408        0.57575
C          2.66190       -1.21345        2.03037
C          1.21568       -1.68064        2.24323
C          0.84504       -3.02408        1.59829
C          1.63903       -4.23932        2.09669
C          1.28867       -5.50247        1.29791
C          1.89054       -6.73062        1.96978
S          1.37922       -6.66493        3.70110
S          1.28738       -4.62340        3.84626
H          4.10198        0.99040       -0.17662
H          2.97452       -2.02710        0.02033
H          4.19088       -0.90074        0.55711
H          3.34020       -1.89995        2.55036
H          2.77961       -0.23923        2.52183
H          1.02308       -1.72293        3.32176
H          0.53078       -0.91572        1.85892
H         -0.22804       -3.19570        1.75924
H          0.96367       -2.94114        0.51121
H          2.71446       -4.05247        2.00612
H          0.20015       -5.61781        1.20114
H          1.67952       -5.41610        0.27664
H          1.53600       -7.65404        1.50320
H          2.98396       -6.71515        1.91624
