14

O          1.01390        0.14858       -0.23485
C          2.21344        0.01143       -0.04830
O          3.12111        0.41097       -0.96406
C          2.80887       -0.60575        1.18628
C          2.47699        0.21892        2.42119
Cl         0.79330       -0.00187        2.97602
C          3.39826       -0.16691        3.55654
O          4.23179        0.55935        4.07579
O          3.27612       -1.45032        3.95494
H          4.05698        0.23650       -0.75390
H          2.45774       -1.64101        1.26430
H          3.89795       -0.66740        1.06707
H          2.60948        1.28932        2.22752
H          3.87426       -1.53849        4.72719
