23

C          3.36022        1.20314       -0.01509
C          2.01535        0.54154       -0.00686
C          1.89884       -0.84091       -0.00281
C          0.62534       -1.41972        0.00224
C          0.50649       -2.91907        0.01901
C         -0.51109       -0.57601       -0.00112
C         -1.84330       -1.05279       -0.00659
C         -2.92503       -0.17293       -0.00830
C         -2.69385        1.19476       -0.00064
C         -1.38200        1.67330        0.00418
C         -0.28717        0.81916        0.00062
N          0.94143        1.36210       -0.00151
H          3.45483        1.84064       -0.89972
H          3.47617        1.82010        0.88135
H          4.17413        0.47156       -0.03413
H          2.78924       -1.46233       -0.00362
H         -0.00959       -3.24800        0.92688
H         -0.03992       -3.26935       -0.86247
H          1.48969       -3.40167        0.00765
H         -2.05089       -2.11974       -0.01208
H         -3.94175       -0.55678       -0.01538
H         -3.52611        1.89332        0.00045
H         -1.20616        2.74657        0.00988
