16

C          0.97330        0.00552       -0.11114
C          0.51438       -1.28768       -0.78660
C          1.03160       -2.50786       -0.01930
N         -0.96772       -1.29886       -0.80621
C          1.05199       -1.35313       -2.22992
O          1.98128       -0.71853       -2.70371
O          0.41128       -2.27691       -2.98734
H          0.59721        0.07873        0.91591
H          0.62748        0.88854       -0.66157
H          2.06740        0.06093       -0.06750
H          0.69847       -2.49762        1.02470
H          0.68490       -3.44435       -0.47229
H          2.12743       -2.53672       -0.02220
H         -1.26698       -2.10273       -1.36374
H         -1.32244       -1.45239        0.13584
H          0.85034       -2.19662       -3.85967
