22

O          1.84759        0.13877        0.66448
C          0.65527        0.07141        0.40394
C         -0.23687        1.23363        0.09684
C         -1.56480        0.58162       -0.27417
N         -1.30686       -0.86492       -0.29644
C         -2.38481       -1.65438        0.16842
C         -2.31514       -2.46295        1.31384
C         -3.40139       -3.25078        1.71071
C         -4.57501       -3.25241        0.96216
C         -4.66669       -2.46046       -0.17822
C         -3.58258       -1.66824       -0.56726
N         -0.08381       -1.08431        0.32792
H          0.17408        1.80688       -0.73881
H         -0.33450        1.87472        0.97742
H         -2.32849        0.86315        0.46270
H         -1.90342        0.92326       -1.25876
H         -1.41877       -2.48134        1.92753
H         -3.32576       -3.86547        2.60408
H         -5.41394       -3.87373        1.26443
H         -5.57603       -2.46571       -0.77327
H         -3.66612       -1.07538       -1.47494
H          0.37616       -1.98189        0.22178
