36

O          1.08809        0.15082        0.23260
C          2.27539       -0.16042        0.22781
N          3.21853        0.76765        0.62658
C          4.54191        0.99530        0.26847
O          5.05285        2.10447        0.39580
C          5.35160       -0.08361       -0.28496
C          5.40425       -0.29517       -1.65676
F          4.67999        0.45876       -2.49391
C          6.19309       -1.31868       -2.17900
C          6.94797       -2.12278       -1.32075
C          6.90700       -1.90016        0.05726
C          6.10946       -0.87841        0.56765
F          6.05373       -0.70210        1.89482
N          2.76194       -1.39689       -0.11625
C          2.00558       -2.38795       -0.79364
C          2.21906       -3.70885       -0.37151
C          1.50873       -4.77768       -0.93517
C          1.77908       -6.19045       -0.47004
F          2.99947       -6.63365       -0.87819
F          1.77423       -6.30120        0.88596
F          0.87453       -7.09635       -0.92827
C          0.57290       -4.50644       -1.94105
C          0.36639       -3.19512       -2.41754
C         -0.63298       -2.96115       -3.52558
F         -0.04959       -2.59752       -4.69958
F         -1.35913       -4.08069       -3.81957
F         -1.55638       -2.00744       -3.23154
C          1.11826       -2.14004       -1.86668
Cl         1.08392       -0.59283       -2.65746
H          2.76720        1.63759        0.88411
H          6.21819       -1.47975       -3.25349
H          7.57174       -2.91693       -1.72647
H          7.49514       -2.51331        0.73506
H          3.44629       -1.73654        0.54628
H          2.93245       -3.92189        0.42468
H          0.00692       -5.33224       -2.37891
