45

O          3.02587        0.21390       -1.71464
C          2.67996        0.44537       -3.08469
C          1.74988        1.66434       -3.24510
O          0.44166        1.22533       -2.85818
C         -0.43566        2.18313       -2.28236
O         -0.30816        2.15067       -0.86402
C         -0.96609        1.04590       -0.21405
C         -0.30461       -0.32066       -0.45626
C         -1.27075       -1.49615       -0.28555
O         -2.34781       -1.39921       -1.21151
O          0.79549       -0.44931        0.47576
C          0.71954        0.64579        1.40881
O          1.65563        1.63238        0.98382
C          1.08506        0.21036        2.83892
O          0.15842       -0.71214        3.40473
C         -0.71448        1.19542        1.28371
O         -0.85125        2.53820        1.73633
C         -0.16166        3.59847       -2.81907
O         -1.13309        4.53741       -2.34381
C          1.23857        4.05939       -2.41040
O          1.19484        4.54830       -1.05076
C          2.29685        2.94940       -2.56454
O          2.89881        2.74665       -1.27831
H          2.20515       -0.03548       -1.24088
H          3.61405        0.60458       -3.62991
H          2.20482       -0.46738       -3.46036
H          1.66355        1.87200       -4.31899
H         -1.46449        1.90722       -2.54353
H         -2.03282        1.08940       -0.45640
H          0.11410       -0.41788       -1.45381
H         -0.74870       -2.44497       -0.45439
H         -1.68148       -1.53996        0.72716
H         -1.98051       -1.50267       -2.10802
H          2.54596        1.26571        1.14316
H          2.06606       -0.27841        2.83094
H          1.17182        1.08161        3.49959
H         -0.49518       -0.18924        3.90349
H         -1.42694        0.57039        1.83338
H         -0.28750        3.05550        1.12074
H         -0.22741        3.57797       -3.91336
H         -0.80178        4.79755       -1.45604
H          1.51458        4.92603       -3.02108
H          1.75308        3.90958       -0.54687
H          3.10781        3.32640       -3.19934
H          3.25715        1.83354       -1.24968
