30

N          1.44714       -0.07268        0.16046
S          0.83076        1.31545       -0.55114
O          1.76551        1.70016       -1.58195
O         -0.56183        1.05127       -0.82518
C          0.83897        2.64048        0.62360
C         -0.03350        3.69102        0.82513
C          0.33973        4.49410        1.93928
C          1.54149        4.09796        2.49579
S          2.51130        4.71624        3.85727
O          1.91632        4.08653        5.01933
O          3.90238        4.52062        3.50586
C          2.17020        6.46408        3.94482
C          2.91871        7.34262        2.94286
C          2.41019        7.31577        1.49755
C          1.01727        7.90922        1.30105
O          1.04979        9.32334        1.40623
S          2.14046        2.68640        1.72872
H          0.85739       -0.86943       -0.08356
H          2.41695       -0.20402       -0.13079
H         -0.91610        3.84413        0.21387
H         -0.24261        5.33174        2.29870
H          1.08849        6.61345        3.92569
H          2.50415        6.75100        4.95055
H          2.87893        8.37794        3.30311
H          3.98023        7.06780        2.93891
H          3.11736        7.89357        0.88894
H          2.43787        6.29305        1.11369
H          0.65457        7.66346        0.29792
H          0.28740        7.52803        2.01840
H          1.15805        9.56420        2.34080
