9

N          0.98993        0.09641       -0.14727
C          0.26767        0.62798       -1.18411
O         -0.96175        0.60590       -1.14104
C          1.04457        1.22783       -2.35413
Cl         2.05449        2.56649       -1.76570
Cl         2.05448       -0.03135       -3.09757
H          0.48663       -0.30403        0.63380
H          2.00229        0.09007       -0.13489
H          0.34977        1.61299       -3.10539
