8

Br         0.92611       -0.08754        0.02078
C          2.89574       -0.04052        0.06270
Br         3.51735        0.09429       -1.80246
C          3.40821        1.11967        0.90675
Br         2.78660        0.98486        2.77192
Br         5.37784        1.16669        0.94868
H          3.22082       -1.01960        0.42707
H          3.08314        2.09875        0.54239
