15

N         -2.35387       -0.18114        0.27106
C         -0.97541       -0.12785        0.08255
N         -0.47438        1.12912        0.02610
C          0.87252        1.24121       -0.04534
C          1.70988        0.14232       -0.06219
N          1.23889       -1.12024       -0.01731
C         -0.12154       -1.24377        0.05821
C         -0.61898       -2.65134        0.09144
O          0.04248       -3.64561        0.34158
O         -1.91867       -2.79393       -0.25628
H         -2.74086        0.74725        0.13213
H         -2.78856       -0.90679       -0.29548
H          1.26301        2.25220       -0.08139
H          2.78781        0.24871       -0.11195
H         -2.05409       -3.76368       -0.17643
