28

N          1.15987        0.20031       -0.06453
C          0.42875        1.35548       -0.09801
C         -0.63318        1.57220        0.89955
C         -1.29575        2.72178        0.79689
N         -1.00167        3.63648       -0.19249
C         -1.81076        4.84075       -0.29501
C         -2.67584        4.94134       -1.54021
C         -2.94109        6.42546       -1.58833
C         -1.63244        7.02497       -1.07673
C         -0.68031        7.45629       -2.19677
O         -1.26450        8.48633       -2.99161
O         -1.00393        6.02536       -0.24834
C          0.00227        3.38387       -1.13469
O          0.23854        4.15987       -2.05819
N          0.71024        2.20599       -1.03276
H          0.67869       -0.64118        0.22645
H          1.70669        0.07372       -0.91140
H         -0.82890        0.83297        1.66184
H         -2.09049        2.96658        1.49460
H         -2.46342        4.90437        0.58621
H         -2.14587        4.63424       -2.44719
H         -3.58540        4.33809       -1.46816
H         -3.24846        6.77687       -2.57651
H         -3.74928        6.66790       -0.88681
H         -1.85614        7.89882       -0.45352
H          0.24711        7.84692       -1.76498
H         -0.39948        6.61893       -2.84343
H         -1.69910        8.05260       -3.74601
