12

C          1.08022       -0.00421        0.03317
O          0.55423       -1.17033       -0.58740
C          1.01336       -1.32577       -1.92255
C          0.52599       -0.29312       -2.93001
O          1.22804        0.35110       -3.69423
O         -0.81308       -0.13908       -2.93669
H          0.73681        0.01608        1.07100
H          0.71769        0.89848       -0.46727
H          2.17440       -0.02433        0.02936
H          2.10956       -1.33969       -1.93528
H          0.67950       -2.30609       -2.27965
H         -0.97942        0.54178       -3.62031
