46

C          1.52808        0.08743       -0.10084
O          1.00704        1.41092        0.04335
C          1.14309        1.90268        1.31584
C          2.42754        1.96845        1.88422
C          2.61946        2.47982        3.16546
C          1.52681        2.95291        3.87573
Cl         1.74043        3.57980        5.46286
C          0.25440        2.92126        3.30858
C          0.02614        2.40769        2.00838
P         -1.71666        2.39796        1.49215
C         -2.25245        4.12360        1.62635
C         -1.38611        5.15004        1.18129
C         -1.73746        6.49891        1.27578
Cl        -0.66481        7.71041        0.69005
C         -2.95572        6.87073        1.82473
C         -3.82986        5.88122        2.26630
C         -3.49258        4.51795        2.18198
O         -4.53068        3.71368        2.58126
C         -4.23278        2.57673        3.37991
C         -1.90393        1.76412       -0.17871
C         -1.82107        0.35513       -0.28042
C         -1.95189       -0.30513       -1.50387
Cl        -1.76885       -2.01533       -1.56748
C         -2.20345        0.41141       -2.66235
C         -2.32903        1.79794       -2.59088
C         -2.19897        2.46411       -1.35846
O         -2.29761        3.83077       -1.38245
C         -3.66644        4.24247       -1.36090
H          1.19852       -0.29915       -1.06975
H          1.14185       -0.57832        0.67959
H          2.62193        0.08233       -0.10426
H          3.29753        1.63328        1.32519
H          3.61586        2.51091        3.59538
H         -0.57707        3.30510        3.90002
H         -0.43386        4.89808        0.71605
H         -3.23823        7.91726        1.89839
H         -4.79374        6.17004        2.68172
H         -4.19706        1.68443        2.74766
H         -3.31885        2.69071        3.97167
H         -5.06038        2.43210        4.08086
H         -1.61999       -0.24187        0.60738
H         -2.29596       -0.09643       -3.61892
H         -2.51814        2.36576       -3.49747
H         -4.26772        3.65120       -0.66079
H         -3.69337        5.28635       -1.03381
H         -4.09939        4.19281       -2.36406
