17

C          0.90869        0.05244        0.14054
C          0.68943        1.36810        0.83568
O          0.36828        2.39077        0.24097
C          0.94055        1.41782        2.28792
C          2.25225        1.21829        2.73854
C          2.53032        1.28045        4.10503
C          1.50150        1.54187        5.01028
Cl         1.84909        1.61570        6.69339
C          0.19467        1.73928        4.56501
C         -0.08939        1.67822        3.19808
Cl        -1.73117        1.87733        2.70489
H          0.07320       -0.13567       -0.53936
H          0.95114       -0.77160        0.85843
H          1.84587        0.09045       -0.42043
H          3.06017        1.03365        2.03390
H          3.54873        1.13227        4.45735
H         -0.59969        1.93727        5.28052
