18

N          0.73601       -0.17663        0.11096
C          0.32376       -0.80235       -1.06818
C          0.64751       -2.13848       -1.30453
C          0.13602       -2.82034       -2.41646
C         -0.71762       -2.18843       -3.32863
N         -1.30198       -2.97617       -4.33597
C         -1.12605       -0.87844       -3.01553
N         -2.08606       -0.17091       -3.86304
O         -2.11091       -0.45264       -5.07245
O         -2.79697        0.69434       -3.33005
C         -0.61430       -0.19208       -1.89819
H          0.71776        0.83857        0.08144
H          1.60707       -0.53291        0.49307
H          1.29366       -2.67448       -0.61296
H          0.40090       -3.86703       -2.55096
H         -1.66897       -2.42711       -5.11889
H         -0.71968       -3.74232       -4.66168
H         -0.95191        0.81701       -1.67186
