9

C          0.91008        0.03257       -0.07480
C          0.19059       -1.05633       -0.37568
C         -1.27877       -1.10326       -0.38865
O         -1.93252       -2.09360       -0.66230
O         -1.86099        0.06147       -0.06681
H          0.44187        0.97702        0.18617
H          1.99438       -0.00195       -0.08434
H          0.67682       -1.99057       -0.63383
H         -2.81873       -0.13447       -0.12095
