123

C          1.39872        0.28019       -0.05020
C          0.64104        0.51580        1.25605
C          0.96872        1.88995        1.83359
C         -0.87695        0.36348        1.04959
C         -1.30319       -1.06042        0.67074
C         -0.89865       -2.11279        1.70872
C         -1.53452       -1.87312        3.08177
C         -3.06202       -1.97236        3.04829
C         -3.54898       -3.35046        2.59084
C         -3.11285       -4.46780        3.54342
C         -3.70279       -4.29558        4.94634
C         -5.23565       -4.26550        4.93138
C         -5.84010       -5.53721        4.32455
C         -5.39697       -6.80350        5.05908
C         -5.75215       -6.76517        6.54411
C         -7.26390       -6.78407        6.78231
C         -7.89979       -8.12741        6.41422
C         -7.36573       -9.29208        7.24318
O         -7.86096       -9.14680        8.57684
C         -7.10618       -8.48885        9.49076
O         -5.94102       -8.14228        9.34511
C         -7.88116       -8.25854       10.74987
C         -9.40208       -8.23461       10.55323
O         -9.91228       -9.44827        9.99802
C        -10.12603       -8.07321       11.87854
O        -11.26912       -7.64894       11.98253
O         -9.32970       -8.48421       12.90242
C         -9.77955       -8.28678       14.24352
C         -9.25566       -6.94312       14.74459
C         -9.90575       -5.74068       14.05580
C        -11.41547       -5.66857       14.29914
C        -11.75862       -5.27184       15.73265
C        -11.32989       -3.84077       16.05891
C        -11.94295       -2.80929       15.10402
C        -13.47562       -2.85306       15.09685
C        -14.07013       -2.61920       16.48885
C        -13.63651       -1.27745       17.08705
C        -14.12434       -0.08518       16.25894
C        -15.65182        0.00136       16.20069
C        -16.28673        0.15754       17.58621
C        -15.88105        1.45866       18.28700
C        -16.30736        2.71945       17.52453
C        -17.82542        2.80830       17.28418
C        -18.58278        2.94833       18.60431
C        -18.15306        3.96571       16.34487
H          1.04813        0.95755       -0.83591
H          1.26677       -0.74681       -0.40586
H          2.47255        0.43793        0.08610
H          0.99335       -0.21451        1.99231
H          0.62177        2.69425        1.17863
H          0.49494        2.01531        2.81366
H          2.04927        1.99925        1.97423
H         -1.40745        0.67419        1.95805
H         -1.21575        1.05011        0.26382
H         -2.38897       -1.07547        0.52017
H         -0.87927       -1.33647       -0.30021
H         -1.16343       -3.10551        1.32972
H          0.18937       -2.14830        1.81926
H         -1.12103       -2.59279        3.79681
H         -1.24737       -0.89302        3.47639
H         -3.45726       -1.73372        4.04174
H         -3.48361       -1.20624        2.38967
H         -4.63905       -3.32891        2.49044
H         -3.19093       -3.57771        1.58214
H         -3.40618       -5.43408        3.11888
H         -2.02157       -4.51910        3.61505
H         -3.33667       -5.10309        5.59007
H         -3.32912       -3.37877        5.41434
H         -5.60286       -4.10838        5.95095
H         -5.60129       -3.39541        4.37653
H         -6.93130       -5.45197        4.32509
H         -5.56731       -5.62814        3.26758
H         -5.84065       -7.67906        4.57486
H         -4.31504       -6.94574        4.95853
H         -5.25467       -7.60551        7.03242
H         -5.32593       -5.88239        7.03151
H         -7.47076       -6.53539        7.82801
H         -7.75688       -5.98991        6.21191
H         -8.98116       -8.03775        6.57693
H         -7.75779       -8.33908        5.35038
H         -7.78392      -10.22743        6.85908
H         -6.27852       -9.40371        7.22035
H         -7.57249       -9.05366       11.43531
H         -7.56450       -7.29150       11.16520
H         -9.68332       -7.39423        9.90443
H         -9.54112       -9.51935        9.09859
H        -10.86301       -8.40577       14.32992
H         -9.33204       -9.08769       14.84023
H         -9.39321       -6.87935       15.82832
H         -8.17606       -6.88829       14.55757
H         -9.41212       -4.82569       14.39906
H         -9.70968       -5.76540       12.97918
H        -11.85903       -4.97373       13.57856
H        -11.90713       -6.62074       14.09088
H        -12.83834       -5.38931       15.88064
H        -11.29806       -5.96231       16.44632
H        -11.60515       -3.61858       17.09560
H        -10.23956       -3.74973       16.03328
H        -11.58564       -1.81146       15.37867
H        -11.57365       -2.95616       14.08360
H        -13.85343       -2.11123       14.38520
H        -13.83405       -3.81439       14.71206
H        -15.16123       -2.68917       16.43114
H        -13.77821       -3.42519       17.17089
H        -13.99514       -1.21117       18.11868
H        -12.54659       -1.22664       17.17802
H        -13.70217        0.83590       16.67361
H        -13.73042       -0.13775       15.23805
H        -15.93916        0.83131       15.54690
H        -16.06586       -0.89023       15.71715
H        -17.37484        0.09320       17.49066
H        -16.02230       -0.68907       18.22852
H        -16.30424        1.46621       19.29673
H        -14.79513        1.48596       18.43488
H        -15.96817        3.59868       18.08632
H        -15.77720        2.76294       16.56520
H        -18.17811        1.90106       16.78211
H        -18.23208        3.81879       19.16857
H        -19.65665        3.06160       18.42948
H        -18.45074        2.06221       19.23357
H        -17.67940        3.81146       15.36888
H        -19.23363        4.03136       16.17936
H        -17.80598        4.92124       16.74827
