20

N          0.61328       -0.23885       -0.11688
S          0.61458       -1.52169        0.95585
O          1.64789       -1.27521        1.92994
O         -0.77263       -1.68382        1.32654
C          1.10282       -2.91184       -0.03524
C          0.37338       -4.10021        0.14453
C          0.68959       -5.24112       -0.59015
C          1.72838       -5.20232       -1.51249
C          2.45217       -4.02287       -1.69852
C          2.16303       -2.85568       -0.95864
C          2.98052       -1.61883       -1.24337
F          4.21233       -1.91981       -1.75418
F          2.40116       -0.81498       -2.17759
F          3.23698       -0.83300       -0.16601
H         -0.32852        0.14770       -0.19897
H          1.31206        0.45278        0.16723
H         -0.44451       -4.14702        0.86278
H          0.12428       -6.15854       -0.44250
H          1.97673       -6.09019       -2.09007
H          3.25830       -4.01816       -2.43344
