29

C         -0.13862        0.04959        0.24688
O          0.05833        1.33467        0.81879
C          0.72277        1.46232        2.00690
C          1.64589        0.70485        2.64351
C          2.09391        1.12826        4.02256
O          2.91772        0.51236        4.68316
O          1.44330        2.24237        4.45412
C          1.77566        2.63662        5.78687
C          2.25284       -0.52437        2.07725
C          1.99091       -1.73782        2.74336
C          2.50243       -2.94624        2.27259
C          3.27181       -2.96584        1.11723
C          3.55462       -1.77375        0.45088
C          3.08335       -0.53326        0.93141
C          3.43289        0.72058        0.16241
Cl         5.19313        0.92008       -0.02130
H         -0.94357        0.13968       -0.48941
H         -0.45335       -0.68372        0.99502
H          0.74549       -0.28301       -0.29735
H          0.37373        2.40400        2.42624
H          1.41723        1.88821        6.50062
H          2.85402        2.79042        5.89354
H          1.26999        3.58354        5.99577
H          1.39214       -1.74813        3.65306
H          2.30147       -3.86846        2.81160
H          3.66462       -3.90664        0.73986
H          4.16403       -1.81608       -0.45107
H          2.98793        0.67752       -0.83751
H          3.08078        1.63225        0.64633
