29

C          1.28902        0.07602        0.32407
C          0.75905        1.50498        0.46949
C          1.69515        2.46750       -0.26720
N         -0.65043        1.73022        0.14152
C         -1.45821        2.39423        1.17738
C         -1.07087        3.86071        1.43305
O         -1.17507        4.63026        0.23990
C         -1.37274        1.24730       -1.03765
C         -1.15007        2.14087       -2.26119
C         -1.17186       -0.21818       -1.42876
H          1.47460       -0.19432       -0.71839
H          0.61308       -0.65402        0.77917
H          2.25139       -0.02020        0.84156
H          0.88649        1.72717        1.53843
H          1.72069        2.27453       -1.34235
H          1.41094        3.51128       -0.10822
H          2.71976        2.35859        0.10758
H         -2.52089        2.38417        0.90754
H         -1.38484        1.83183        2.11613
H         -1.74597        4.30257        2.17224
H         -0.05042        3.95279        1.81631
H         -0.69993        4.11180       -0.43536
H         -2.44906        1.31025       -0.82812
H         -0.09745        2.19911       -2.54635
H         -1.69977        1.75206       -3.12605
H         -1.52121        3.15447       -2.08510
H         -1.26247       -0.88161       -0.56343
H         -1.95043       -0.52313       -2.13909
H         -0.21606       -0.38908       -1.92920
