29

O          1.42014        0.29920        0.59062
C          2.45482       -0.01297        0.03193
O          3.03914        0.68751       -0.94935
C          3.22052       -1.22854        0.29998
C          2.82535       -2.39648       -0.37733
Cl         1.51036       -2.34560       -1.51887
C          3.49764       -3.59940       -0.12815
Cl         3.00759       -5.05902       -0.94266
C          4.57090       -3.61883        0.78059
Cl         5.40959       -5.11853        1.08784
C          4.96963       -2.43479        1.44867
Cl         6.35963       -2.49574        2.49938
C          4.27725       -1.22475        1.23917
C          4.62667        0.05396        1.94749
O          5.10805       -0.04635        3.20066
N          4.44808        1.21077        1.40223
C          4.77078        2.38974        2.10515
C          6.11329        2.79088        2.14974
C          6.48343        4.00390        2.72901
C          5.50795        4.84309        3.26060
C          4.16266        4.46501        3.22454
Cl         3.01363        5.57916        3.88574
C          3.78700        3.23967        2.65141
Cl         2.11786        2.77274        2.59222
H          2.58258        1.55621       -0.93262
H          5.30877       -0.94818        3.49782
H          6.87470        2.14945        1.71338
H          7.52935        4.29897        2.75055
H          5.79947        5.79661        3.69499
