56

C          2.12701        0.50517       -0.44938
C          0.71064        0.55519        0.15421
O          0.77396        0.44356        1.60491
C          1.56062        1.29627        2.28557
O          2.14885        2.26896        1.82927
C          1.60453        0.98547        3.72484
C          1.69463        2.11976        4.56352
C          1.81209        1.99127        5.94538
C          1.86067        0.72349        6.50938
C          1.75047       -0.40826        5.69293
C          1.60760       -0.29533        4.29293
C          1.40215       -1.57983        3.57184
O          0.57205       -2.38933        3.96065
O          2.34481       -1.79384        2.62584
C          2.55320       -3.13163        2.05458
C          1.39462       -3.60370        1.16388
C          3.81847       -2.98828        1.17740
C          5.05186       -2.65392        2.01607
C          5.28753       -3.71049        3.08966
C          4.05609       -3.91713        3.96588
C          2.82211       -4.21270        3.12467
C         -0.05916       -0.69266       -0.30781
C         -1.52054       -0.70749        0.12494
C         -2.23541        0.53978       -0.36650
C         -1.52377        1.79963        0.11511
C         -0.05189        1.81343       -0.30235
H          2.76327       -0.19053        0.10498
H          2.11290        0.20453       -1.50147
H          2.62047        1.48190       -0.40845
H          1.66925        3.12116        4.13153
H          1.87136        2.87882        6.57204
H          1.97164        0.61458        7.58619
H          1.77330       -1.39256        6.15953
H          0.41577       -3.34025        1.57313
H          1.47691       -3.17972        0.15925
H          1.41610       -4.68940        1.01294
H          3.99924       -3.91314        0.61468
H          3.67966       -2.18961        0.44022
H          4.92903       -1.67089        2.48700
H          5.92983       -2.58443        1.36475
H          6.13905       -3.42243        3.71438
H          5.55040       -4.65949        2.60546
H          3.88115       -3.02923        4.58287
H          4.23184       -4.75456        4.65052
H          1.95965       -4.34531        3.78500
H          2.96967       -5.18217        2.62718
H          0.00010       -0.80669       -1.39649
H          0.40617       -1.56183        0.13588
H         -1.58910       -0.77182        1.21800
H         -2.00939       -1.60346       -0.27454
H         -3.27221        0.53557       -0.01435
H         -2.26740        0.53106       -1.46324
H         -1.59870        1.86922        1.20680
H         -2.02731        2.68043       -0.29813
H          0.40844        2.72177        0.09953
H          0.00310        1.89009       -1.39630
