61

C          1.43982       -0.28874        0.03030
C          0.94031        1.02903        0.10973
C         -0.43510        1.32554        0.14169
N         -0.94714        2.62854        0.17184
C         -0.09120        3.78683        0.48072
C         -0.37936        4.93094       -0.45136
C         -0.82073        6.28221        0.05705
O          0.53771        6.03295       -0.31667
C         -2.39486        2.84615        0.38292
C         -3.18243        2.99694       -0.89325
C         -2.67941        2.60001       -2.26287
O         -3.57180        1.76162       -1.52230
C         -1.27119        0.20118        0.07055
C         -0.78805       -1.11181       -0.02761
C          0.57988       -1.38260       -0.03821
C          1.10756       -2.79644       -0.19216
C          0.63299       -3.76619        0.86895
C          1.41785       -4.07247        1.98130
C          0.90756       -4.87046        3.01936
C         -0.40680       -5.36964        3.00364
N         -0.94973       -6.02598        4.10609
C         -0.11362       -6.94863        4.88611
C          0.16281       -6.50278        6.29438
C          0.12320       -5.06404        6.74035
O         -0.94893       -5.97579        7.03342
C         -2.40578       -6.16011        4.28122
C         -3.02908       -4.94638        4.91163
C         -2.86494       -3.52545        4.42627
O         -4.01901       -4.30131        4.08785
C         -1.14874       -5.10233        1.84450
C         -0.63822       -4.33746        0.79006
H          2.51815       -0.43409        0.00327
H          1.69272        1.80813        0.12302
H         -0.25352        4.08345        1.52484
H          0.97543        3.58198        0.38907
H         -0.61064        4.62495       -1.46161
H         -1.40884        6.91221       -0.59829
H         -1.02393        6.41517        1.11201
H         -2.84436        2.09163        1.03945
H         -2.53365        3.78059        0.94357
H         -3.96090        3.74338       -0.80954
H         -3.08165        3.11366       -3.12665
H         -1.65446        2.27116       -2.37931
H         -2.35261        0.29670        0.06261
H         -1.51992       -1.90825       -0.10740
H          0.82109       -3.17077       -1.18382
H          2.20572       -2.78488       -0.19517
H          2.42421       -3.67000        2.07145
H          1.54784       -5.03704        3.88081
H         -0.60061       -7.93168        4.92695
H          0.84656       -7.14225        4.39258
H          0.81187       -7.19287        6.81729
H          0.75835       -4.76428        7.56412
H         -0.05898       -4.28872        6.00718
H         -2.91227       -6.44134        3.35225
H         -2.61792       -7.00270        4.95272
H         -3.26959       -5.09923        5.95550
H         -2.99109       -2.72730        5.14770
H         -2.15288       -3.29653        3.64701
H         -2.16831       -5.45674        1.73151
H         -1.27372       -4.15596       -0.07317
