34

C          0.74602        0.00988        0.23545
O          0.77456        1.39674       -0.11058
C          1.02281        2.15721        1.00674
C         -0.06033        2.81386        1.60151
C          0.12318        3.61254        2.73840
C         -1.00202        4.33416        3.35997
C         -0.91853        5.70284        3.62719
C         -1.99455        6.39410        4.19457
C         -3.21262        5.75154        4.46768
N         -4.23743        6.52472        5.04629
C         -3.28520        4.36228        4.28010
O         -4.35002        3.53314        4.52912
C         -5.23973        3.87197        5.58228
C         -2.19532        3.67842        3.70567
C          1.42383        3.71292        3.26427
C          2.50824        3.07243        2.64963
C          2.33240        2.34559        1.47447
N          3.41751        1.65283        0.90743
H          0.17311       -0.51350       -0.53614
H          0.25858       -0.17372        1.20009
H          1.75843       -0.40546        0.23829
H         -1.04877        2.70031        1.16120
H         -0.01550        6.25778        3.37745
H         -1.88207        7.45758        4.38457
H         -5.15278        6.23982        4.71341
H         -4.10729        7.52299        4.92041
H         -4.74169        4.34559        6.43379
H         -6.05694        4.48746        5.19516
H         -5.69295        2.94338        5.94486
H         -2.28378        2.60596        3.54661
H          1.60299        4.28931        4.16901
H          3.49527        3.16256        3.09620
H          3.24095        1.45373       -0.07557
H          4.30655        2.12273        1.04647
