20

C          1.84326        1.52844        0.01098
C          0.57689        0.71453        0.00234
C         -0.65794        1.38831       -0.00055
C         -1.86281        0.68409       -0.01446
C         -1.83864       -0.71218       -0.02604
N         -3.10023       -1.46218       -0.04681
O         -3.03664       -2.69994       -0.06969
O         -4.15726       -0.81444       -0.04120
C         -0.61948       -1.40169       -0.01948
C          0.59763       -0.69586       -0.00434
C          1.87010       -1.50075        0.00549
H          2.42804        1.31195        0.91057
H          2.44041        1.30991       -0.88012
H          1.63208        2.60319        0.00735
H         -0.68815        2.47700        0.00699
H         -2.80012        1.23612       -0.01740
H         -0.60144       -2.49093       -0.02653
H          1.90209       -2.13406        0.89842
H          1.91519       -2.13663       -0.88498
H          2.76954       -0.88059        0.01119
