12

C          0.97973       -0.04588        0.09540
N          0.45352       -1.32237       -0.32156
C         -0.33475       -2.09669        0.49684
C         -0.78336       -3.39360       -0.12325
O         -0.65891       -1.78149        1.63692
H          0.67568        0.20912        1.11322
H          0.61584        0.71537       -0.59918
H          2.07008       -0.09210        0.03754
H          0.67900       -1.64944       -1.25134
H         -0.41560       -4.22479        0.48447
H         -1.87609       -3.41385       -0.15498
H         -0.40402       -3.51346       -1.14165
