17

C          0.89692       -0.06748        0.04173
C          0.54120       -1.42446       -0.50426
C          1.01392       -2.54909        0.19981
C          0.70448       -3.84058       -0.22354
C         -0.09182       -4.01643       -1.34668
Cl        -0.51536       -5.60582       -1.85423
C         -0.55464       -2.91328       -2.06372
C         -0.19328       -1.61039       -1.68999
N         -0.76439       -0.53368       -2.38764
H          0.75376       -0.04921        1.12798
H          0.27246        0.73196       -0.36490
H          1.94408        0.16030       -0.18114
H          1.61643       -2.41741        1.09625
H          1.07040       -4.69667        0.33659
H         -1.19574       -3.07144       -2.92610
H         -1.02756       -0.75743       -3.34241
H         -0.22004        0.32124       -2.34422
