32

C          1.38061       -0.31166        0.08031
C          0.95098        1.00954       -0.01651
C         -0.41300        1.29567       -0.11816
C         -1.36930        0.26697       -0.12173
C         -2.80452        0.56998       -0.22666
C         -3.31181        1.28412       -1.32153
C         -4.67336        1.56987       -1.41957
C         -5.54930        1.14760       -0.41906
C         -5.08256        0.43325        0.69472
C         -6.00468       -0.00242        1.75727
C         -7.16006       -0.74315        1.45645
C         -8.03710       -1.15291        2.46467
C         -7.77362       -0.82779        3.79275
C         -6.63410       -0.09471        4.11339
C         -5.75781        0.31341        3.10403
C         -3.70569        0.15216        0.76967
C         -0.91583       -1.05838       -0.02129
C          0.44811       -1.34618        0.07733
H          2.44134       -0.53499        0.15832
H          1.67562        1.81947       -0.01063
H         -0.73013        2.33460       -0.18296
H         -2.64394        1.61406       -2.11480
H         -5.05192        2.12354       -2.27469
H         -6.60574        1.39359       -0.50682
H         -7.37949       -1.01760        0.42660
H         -8.92394       -1.72759        2.21082
H         -8.45554       -1.14527        4.57709
H         -6.42615        0.16372        5.14835
H         -4.87951        0.89588        3.37573
H         -3.32426       -0.40408        1.62537
H         -1.62879       -1.88055       -0.03083
H          0.78008       -2.37852        0.14969
