26

C          1.08640        0.07709       -0.05453
C          0.52971        0.31808       -1.45449
C          1.10053       -0.62498       -2.50459
O         -0.91261        0.34066       -1.47975
C         -1.62505       -0.73951       -1.07872
O         -1.14240       -1.81220       -0.73280
N         -2.97432       -0.52174       -0.97570
C         -3.74901        0.57022       -1.40141
C         -4.99316        0.75480       -0.78738
C         -5.81235        1.82677       -1.15076
C         -5.40955        2.70206       -2.15622
C         -4.19005        2.50345       -2.79862
C         -3.36132        1.44315       -2.42068
H          0.91565       -0.94780        0.28726
H          0.60291        0.74154        0.66954
H          2.16558        0.25808       -0.02944
H          0.82307        1.33555       -1.74036
H          0.87493       -1.67156       -2.28129
H          0.66693       -0.40665       -3.48636
H          2.18785       -0.51871       -2.57238
H         -3.43332       -1.24093       -0.43368
H         -5.32537        0.08925        0.00519
H         -6.76259        1.97980       -0.64589
H         -6.04689        3.53411       -2.44370
H         -3.88162        3.17017       -3.59989
H         -2.43489        1.30112       -2.96807
