61

C          2.28422        0.05777        0.00253
C          1.68953        1.01300       -1.02119
C          1.33123        0.41688       -2.38655
C          0.41106       -0.80885       -2.41447
C         -1.07803       -0.56834       -2.66815
O         -1.50270       -0.65417       -3.82503
N         -1.94373       -0.32553       -1.61090
C         -1.53734       -0.13453       -0.21983
C         -1.73830        1.27550        0.28363
C         -1.52471        2.38207       -0.54553
C         -1.58173        3.67919       -0.04459
C         -1.86774        3.91978        1.30518
C         -1.88070        5.30876        1.80646
C         -2.69522        6.25269        1.14449
C         -2.71094        7.59609        1.51756
C         -1.91588        8.02884        2.57051
C         -1.11185        7.11650        3.25405
C         -1.08354        5.75815        2.88530
C         -0.20660        4.86188        3.62666
N          0.83004        4.17195        3.19437
N          1.27738        3.43344        4.26486
N          0.53467        3.65598        5.33977
N         -0.38091        4.54973        4.94671
C         -2.11454        2.81040        2.12937
C         -2.03041        1.50462        1.63180
C         -3.41075       -0.43002       -1.86222
C         -3.92557        0.56707       -2.93212
O         -4.91954        0.45077       -3.62940
O         -3.28881        1.75856       -2.92800
C         -3.88468       -1.89371       -2.11850
C         -3.24089       -2.90528       -1.15644
C         -5.40863       -2.03154       -1.95859
H          1.84014       -0.93857       -0.02354
H          2.12105        0.45558        1.01107
H          3.36267       -0.04587       -0.14337
H          0.81228        1.47804       -0.58554
H          2.39832        1.83698       -1.17364
H          0.90344        1.21174       -3.01040
H          2.27933        0.13339       -2.86287
H          0.73402       -1.41120       -3.27793
H          0.54312       -1.48395       -1.56809
H         -2.11768       -0.83254        0.39334
H         -0.49346       -0.40542       -0.07408
H         -1.26172        2.24739       -1.59255
H         -1.36559        4.50405       -0.72066
H         -3.32191        5.93751        0.31039
H         -3.33367        8.30157        0.97297
H         -1.91066        9.07932        2.85031
H         -0.47632        7.48341        4.05809
H         -1.08960        4.86536        5.59526
H         -2.34787        2.94511        3.18176
H         -2.17095        0.67026        2.31572
H         -3.90290       -0.08786       -0.94043
H         -3.78638        2.27720       -3.59230
H         -3.62113       -2.18588       -3.14224
H         -3.48198       -2.66714       -0.11431
H         -3.60940       -3.91791       -1.35478
H         -2.15275       -2.93587       -1.26166
H         -5.96083       -1.44127       -2.69199
H         -5.72035       -3.07280       -2.09603
H         -5.73017       -1.71518       -0.95992
