17

C          0.77609        0.00163       -0.06589
C          0.52018        0.83106        1.16019
C          0.36107        0.22527        2.41960
O          0.42169       -1.12858        2.61163
C          0.13483        0.97718        3.57367
C          0.09876        2.36517        3.50446
C          0.28625        2.99324        2.27770
C          0.49138        2.23537        1.12201
O          0.66235        2.97017       -0.01899
H          0.42990        0.48692       -0.98173
H          0.23238       -0.94784       -0.02368
H          1.84698       -0.20454       -0.15826
H          0.84565       -1.54578        1.84703
H          0.00193        0.47635        4.52900
H         -0.06583        2.95442        4.40168
H          0.27069        4.07845        2.21609
H          0.63511        2.39541       -0.79616
