43

C          1.21555        0.06265        0.02126
C          1.01027        0.26419        1.51316
N          1.11800        1.66251        1.89649
C          0.12073        2.61779        1.99485
O          0.40201        3.75912        2.34605
C         -1.34509        2.23245        1.66021
O         -1.60435        1.25595        0.97802
O         -2.20800        3.10617        2.22603
C         -3.66761        3.00852        2.17012
C         -4.15965        1.62643        1.71453
C         -5.67288        1.48671        1.62007
C         -6.02316        0.09567        1.08799
C         -6.21179        2.56628        0.68895
C         -5.82353        3.95549        1.17515
C         -4.29536        4.17423        1.33905
C         -4.05054        5.60825        1.93880
C         -2.57427        5.97200        2.11421
C         -4.70679        6.71400        1.08907
H          0.54871        0.69600       -0.57143
H          1.03250       -0.98173       -0.25207
H          2.24456        0.30846       -0.26291
H          0.05206       -0.14696        1.83906
H          1.79121       -0.27528        2.06018
H          2.04271        2.03165        2.07881
H         -3.99077        3.14198        3.21107
H         -3.75459        0.85885        2.38589
H         -3.77120        1.41980        0.71172
H         -6.11571        1.60479        2.61674
H         -5.63218       -0.68269        1.75193
H         -7.10646       -0.03533        1.01030
H         -5.59113       -0.06808        0.09354
H         -5.82672        2.42128       -0.32880
H         -7.30422        2.49518        0.62617
H         -6.32373        4.14753        2.13368
H         -6.23385        4.66927        0.45323
H         -3.83364        4.15274        0.34232
H         -4.51644        5.64873        2.93281
H         -2.00878        5.79530        1.19404
H         -2.46024        7.02997        2.37900
H         -2.11895        5.40619        2.93049
H         -5.79895        6.65219        1.11328
H         -4.45235        7.70987        1.46927
H         -4.37897        6.65761        0.04562
