20

C         -4.08992       -0.44517       -0.00282
C         -2.63769       -0.06558        0.00300
C         -2.24773        1.28145        0.00827
C         -0.89584        1.62463        0.01210
C          0.06073        0.61370        0.01061
O          1.41391        1.00422        0.01300
C          2.43125        0.06030        0.00972
O          3.61665        0.37225        0.00913
C          2.02881       -1.35741        0.00746
C          0.74832       -1.74007        0.00577
C         -0.29868       -0.73164        0.00616
C         -1.65445       -1.06917        0.00220
H         -4.32315       -1.02774       -0.89983
H         -4.32750       -1.03942        0.88533
H         -4.73642        0.43850        0.00146
H         -2.99508        2.07215        0.00912
H         -0.59299        2.66756        0.01586
H          2.83942       -2.07573        0.00714
H          0.47460       -2.78912        0.00424
H         -1.95734       -2.11419       -0.00187
