20

C          1.84302        1.52106        0.00093
C          0.58888        0.68257        0.00264
C         -0.64485        1.35810        0.00493
C         -1.84650        0.66035        0.00352
C         -1.83532       -0.72955       -0.00197
C         -0.61566       -1.43639       -0.00357
N         -0.71458       -2.91745       -0.01355
O          0.32117       -3.59321       -0.00630
O         -1.85166       -3.41448       -0.02954
C          0.62320       -0.73848        0.00191
C          1.95359       -1.45363        0.00709
H          2.43322        1.32485        0.90166
H          2.44019        1.31021       -0.89198
H          1.61363        2.59222       -0.00969
H         -0.67476        2.44696        0.00752
H         -2.79085        1.19949        0.00541
H         -2.79213       -1.24959       -0.00504
H          2.04869       -2.07348        0.90448
H          2.06249       -2.06195       -0.89648
H          2.81070       -0.77634        0.01967
