25

C          1.04856        0.20165       -0.17232
N          0.31967        0.71792       -1.31705
C         -0.25420       -0.23703       -2.25548
N          0.77208        1.93966       -1.75929
N          0.37533        2.23327       -2.90441
C          0.86184        3.48719       -3.32026
C         -0.02866        4.37479       -3.93500
C          0.40305        5.62269       -4.39660
C          1.74349        5.99885       -4.25502
C          2.15448        7.33497       -4.74953
O          1.43328        8.13988       -5.31166
O          3.44839        7.60742       -4.50826
C          2.64874        5.11253       -3.66017
C          2.20894        3.86366       -3.20340
H          0.59806       -0.73412        0.17029
H          0.99274        0.93324        0.63918
H          2.09214        0.02959       -0.45033
H         -1.14861        0.19952       -2.71044
H          0.48188       -0.49524       -3.02142
H         -0.55864       -1.14229       -1.72195
H         -1.07173        4.08958       -4.05102
H         -0.31138        6.29714       -4.86478
H          3.56918        8.51009       -4.87121
H          3.69687        5.37965       -3.54858
H          2.92355        3.17835       -2.75337
