9

N          1.08798       -0.04718       -0.00588
C          2.34894       -0.04718       -0.00588
C          3.86894       -0.04718       -0.00588
C          4.41728       -0.97417       -1.07661
Cl         4.18663       -0.30004       -2.70930
H          4.23624        0.97669       -0.13685
H          4.20385       -0.39309        0.97879
H          5.49437       -1.10927       -0.94063
H          3.93961       -1.95874       -1.04934
