23

C          0.65545        0.27338        0.30792
C          0.40067       -1.03474       -0.43319
C          1.10768       -2.27873        0.16597
C          0.58526       -2.56169        1.58857
C          0.77060       -3.51133       -0.69796
N          2.56577       -2.09384        0.25137
C          3.37663       -1.88319       -0.82511
N          4.66687       -1.68584       -0.44698
O          3.05094       -1.86349       -2.00026
H          0.27229        0.23926        1.33145
H          0.14562        1.09528       -0.20577
H          1.72173        0.51551        0.34237
H         -0.68297       -1.20945       -0.45807
H          0.70745       -0.89571       -1.47689
H         -0.50473       -2.67192        1.59930
H          1.02031       -3.48531        1.98915
H          0.85209       -1.76130        2.28716
H          1.05611       -3.37121       -1.74525
H          1.29445       -4.40285       -0.33386
H         -0.30485       -3.72279       -0.68119
H          2.91021       -1.64779        1.08956
H          5.29768       -1.64136       -1.23836
H          4.99522       -2.26701        0.31060
