36

F          2.14420       -0.28784       -0.13642
C          0.81312       -0.12875       -0.15435
C          0.00839       -1.25259       -0.31956
C         -1.38104       -1.12034       -0.29434
C         -1.96198        0.13567       -0.10191
C         -1.15545        1.26338        0.06665
C          0.23712        1.12560        0.04240
C          1.09768        2.32253        0.21315
N          1.89168        2.61624       -0.75771
C          2.68694        3.82887       -0.62315
C          1.72437        5.00473       -0.78447
S          1.64967        5.76323       -2.29466
N          0.96601        5.36581        0.35034
C          0.22226        6.66194        0.36789
C          1.05568        7.91405        0.67167
F          2.08072        8.09600       -0.18198
F          0.27082        9.01718        0.60693
F          1.57292        7.87707        1.92151
C          0.87057        4.51481        1.52156
C          0.63985        5.09458        2.78639
C          0.55655        4.32755        3.95520
C          0.69770        2.95174        3.88939
Cl         0.60762        2.00796        5.32212
C          0.90317        2.33677        2.66274
C          0.97048        3.10262        1.47970
H          0.47028       -2.22433       -0.46532
H         -2.01161       -1.99643       -0.42855
H         -3.04526        0.23545       -0.09266
H         -1.61548        2.23940        0.19500
H          3.22730        3.88017        0.32951
H          3.45464        3.83635       -1.40506
H         -0.26354        6.79869       -0.60399
H         -0.61464        6.59438        1.07283
H          0.55445        6.16767        2.92283
H          0.39613        4.82019        4.91181
H          1.01630        1.25504        2.63114
