32

C          1.11241       -0.23044        0.37557
C          0.31289        0.99423        0.70210
O         -0.90313        1.05926        0.59049
O          1.12950        1.99169        1.13286
C          0.51787        3.26338        1.40714
C          0.86898        4.25286        0.29514
C          0.29895        3.88544       -1.08062
C         -1.22647        3.98606       -1.18872
C         -1.78838        5.41223       -1.13606
C         -1.34360        6.33999       -2.28333
C         -1.76554        5.80884       -3.65455
C         -1.92297        7.74093       -2.07178
H          0.76719       -0.63809       -0.57860
H          0.99242       -0.96771        1.17190
H          2.17255        0.01676        0.26621
H         -0.56251        3.18811        1.56719
H          0.94861        3.61917        2.34969
H          0.54801        5.25882        0.58440
H          1.96183        4.28378        0.19870
H          0.76804        4.52356       -1.83715
H          0.60119        2.86390       -1.33821
H         -1.54354        3.50262       -2.11957
H         -1.69581        3.40584       -0.38752
H         -2.88429        5.34206       -1.14093
H         -1.52267        5.86936       -0.17543
H         -0.25213        6.43652       -2.27192
H         -2.84669        5.63835       -3.69816
H         -1.50385        6.52013       -4.44518
H         -1.26168        4.86656       -3.89000
H         -1.58985        8.15814       -1.11561
H         -1.59305        8.42128       -2.86418
H         -3.01802        7.72393       -2.07325
