15

C          1.11444        0.00461        0.02445
C          0.40486       -0.32645        1.11096
C         -1.10256       -0.34211        1.16234
C         -1.60637       -1.75075        1.47480
C         -1.60637        0.65294        2.20722
H          0.63451        0.28842       -0.90695
H          2.19989       -0.00227        0.04705
H          0.93665       -0.60340        2.01987
H         -1.51031       -0.04508        0.18753
H         -1.25217       -2.09818        2.45205
H         -2.70141       -1.77612        1.48610
H         -1.26429       -2.46647        0.71892
H         -1.26428        1.66856        1.97889
H         -2.70141        0.66770        2.23075
H         -1.25217        0.39639        3.21216
