50

C          1.04852        0.00282       -0.00199
C          0.52695        1.43258       -0.18437
C          1.06156        2.00183       -1.50237
C         -1.00476        1.41935       -0.15923
O          1.04110        2.17999        0.92979
O          0.56294        3.55549        0.79122
C          1.06749        4.30426        1.90603
C          0.52628        3.74052        3.22329
C          2.59896        4.32866        1.88751
C          0.56082        5.72837        1.74598
C          0.12620        6.94996        1.60869
C         -0.38047        8.37407        1.44865
C          0.82678        9.31454        1.38254
C         -1.22677        8.44898        0.17426
O         -1.18055        8.66321        2.60377
O         -1.67778       10.03199        2.46578
C         -2.48450       10.31405        3.62075
C         -3.68532        9.36458        3.68005
C         -1.63985       10.23072        4.89614
C         -2.98435       11.75145        3.43771
H          0.71195       -0.65829       -0.80733
H          0.71202       -0.41590        0.95364
H          2.14439       -0.01202        0.02351
H          0.76766        1.38122       -2.35537
H          0.68885        3.01626       -1.68153
H          2.15508        2.07066       -1.48051
H         -1.37435        1.07509        0.81333
H         -1.41711        2.42267       -0.31215
H         -1.41255        0.76702       -0.93858
H          0.89088        2.72359        3.40494
H          0.81808        4.36084        4.07819
H         -0.56846        3.68223        3.20178
H          2.97126        4.68613        0.92004
H          3.00216        4.98096        2.67025
H          3.01841        3.32734        2.03409
H          1.50587        9.04355        0.56637
H          0.51781       10.35479        1.23255
H          1.39333        9.28784        2.32101
H         -2.11342        7.80920        0.25699
H         -1.59010        9.46635       -0.00743
H         -0.65830        8.13174       -0.70723
H         -3.36921        8.32735        3.83594
H         -4.36817        9.63266        4.49310
H         -4.24175        9.38259        2.73610
H         -0.74756       10.86151        4.81293
H         -2.21023       10.54683        5.77585
H         -1.28453        9.21016        5.07584
H         -2.14284       12.44886        3.35235
H         -3.56076       11.84855        2.51028
H         -3.61590       12.07148        4.27296
