43

C          1.01096       -0.06878       -0.07474
N          0.38493        0.41803       -1.30011
C         -1.05575        0.16141       -1.27727
C          0.69574        1.82879       -1.60817
C          0.45148        2.83143       -0.51740
N         -0.69635        2.96770        0.12300
N         -0.64025        4.09200        0.89174
C          0.53516        4.64856        0.70473
N          1.29479        3.87493       -0.14773
C          2.65676        4.12170       -0.46668
C          3.53870        3.03625       -0.59940
C          4.89387        3.24440       -0.86853
C          5.38456        4.53802       -0.98598
Cl         7.05364        4.79511       -1.30691
C          4.53219        5.62737       -0.83444
C          3.16104        5.43383       -0.57893
C          2.31448        6.66833       -0.48995
C          2.57569        7.76159       -1.47023
C          2.59102        7.49623       -2.84334
C          2.86681        8.52909       -3.74027
C          3.12785        9.81626       -3.26651
C          3.09878       10.08047       -1.89640
C          2.81264        9.05539       -0.99511
N          1.38687        6.88148        0.37764
C          1.05921        5.86364        1.36616
H          0.82998       -1.14336        0.04438
H          0.63732        0.43363        0.82434
H          2.09737        0.05360       -0.11774
H         -1.56575        0.64210       -0.43703
H         -1.52558        0.49578       -2.20889
H         -1.24396       -0.91637       -1.20878
H          1.72277        1.86374       -1.97576
H          0.10273        2.13942       -2.47940
H          3.21644        2.01146       -0.43896
H          5.56296        2.39169       -0.96314
H          4.94686        6.63078       -0.91291
H          2.37429        6.50202       -3.22311
H          2.87262        8.33457       -4.81002
H          3.34429       10.61889       -3.96784
H          3.29389       11.08581       -1.53140
H          2.78176        9.26261        0.07179
H          1.92270        5.63447        2.00197
H          0.28976        6.27033        2.03213
