12

C          1.46218       -0.07091       -0.25471
C          0.44330       -0.59787       -0.93697
O         -0.95540       -0.46015       -0.75866
C         -1.88572        0.14333        0.02265
C         -1.44078        1.01405        1.14997
O         -3.08553       -0.02469       -0.19488
H          1.37489        0.58560        0.59527
H          2.47846       -0.30725       -0.56070
H          0.59073       -1.25588       -1.78889
H         -1.83441        2.02211        0.99137
H         -1.83440        0.60588        2.08524
H         -0.36890        1.09514        1.25494
