92

C         -0.08534        0.17513       -1.87787
C         -0.60327       -1.18407       -1.44741
C         -0.31312       -1.47386       -0.00020
C         -0.91323       -0.46325        0.94657
O         -2.22994       -0.81200        1.26288
C         -3.08661        0.21902        1.38528
O         -3.00193        1.30391        0.81522
C         -4.07220       -0.12381        2.43750
C         -4.33254       -1.63464        2.43959
S         -3.10055       -2.84833        3.10527
P         -0.98055       -2.84833        3.10527
S         -0.93429       -3.51024        5.00569
O         -1.10342       -4.19448        2.02906
C         -1.97563       -4.14151        0.83930
C         -3.28936       -4.99123        0.61745
C         -3.68139       -6.00628        1.72249
C         -4.82892       -5.72053        2.69111
C         -4.52253       -4.20890        0.01489
C         -4.31308       -3.05637       -1.00015
C         -3.61700       -3.38611       -2.31449
C         -4.29244       -4.50221       -3.08502
O          0.74945       -2.84833        3.10527
C          1.60358       -1.43836        3.08506
C          2.04325       -0.25683        1.82912
C          1.33771        1.20216        1.63589
C          0.60293        1.94595        2.72932
C          3.54160        0.23286        1.68002
C          4.66311       -0.62922        1.12555
C          4.36245       -1.57563       -0.03763
C          3.81932       -0.96449       -1.32675
C         -5.77245       -1.94125        2.92721
O         -6.22371       -3.04885        3.17535
O         -6.55578       -0.82445        2.84974
C         -7.98256       -0.98404        2.76932
C         -8.44424       -0.52885        1.38105
C         -7.83912       -1.31690        0.21400
C         -8.31066       -2.76065        0.15027
H         -0.68770        0.98503       -1.45571
H         -0.13356        0.25855       -2.96327
H          0.94973        0.33168       -1.56068
H         -1.67879       -1.25083       -1.62027
H         -0.11483       -1.96645       -2.03680
H         -0.65802       -2.45387        0.23410
H          0.74565       -1.63776        0.09687
H         -0.41543       -0.50198        1.91328
H         -0.89246        0.55052        0.57362
H         -3.76034        0.25834        3.41097
H         -4.96031        0.43853        2.11978
H         -4.40825       -1.90262        1.38877
H         -2.28672       -3.11651        0.67955
H         -1.31582       -4.39185       -0.00021
H         -3.00153       -5.63635       -0.22669
H         -3.99308       -6.92014        1.19998
H         -2.79219       -6.27524        2.29882
H         -5.77932       -5.53565        2.18109
H         -4.97969       -6.58698        3.34481
H         -4.62973       -4.89740        3.36961
H         -5.19823       -4.93945       -0.44969
H         -5.11970       -3.79214        0.82944
H         -5.30245       -2.64136       -1.24376
H         -3.77326       -2.22085       -0.54669
H         -3.62115       -2.48215       -2.94019
H         -2.56706       -3.63360       -2.13407
H         -5.35179       -4.28050       -3.25037
H         -3.81418       -4.62691       -4.06098
H         -4.21373       -5.45039       -2.54740
H          1.27364       -0.89012        3.96941
H          2.59195       -1.86406        3.29527
H          1.93939       -0.76905        0.89293
H          2.07506        1.96161        1.32956
H          0.77924        1.21730        0.69948
H          0.56411        3.01383        2.45020
H         -0.43559        1.63318        2.83932
H          1.13335        1.88979        3.67852
H          3.54953        1.01952        0.90127
H          3.85277        0.75782        2.59042
H          5.44457        0.06701        0.77336
H          5.11229       -1.18460        1.94974
H          5.31161       -2.06247       -0.29131
H          3.68278       -2.36247        0.30069
H          4.19604        0.04330       -1.52419
H          4.09911       -1.59684       -2.17936
H          2.72832       -0.93523       -1.31645
H         -8.31360       -2.00271        2.98978
H         -8.42350       -0.32450        3.52503
H         -9.53805       -0.56648        1.32657
H         -8.15133        0.52085        1.24738
H         -8.11881       -0.82131       -0.72367
H         -6.74553       -1.28800        0.26095
H         -9.39956       -2.81041        0.05140
H         -7.87058       -3.26142       -0.71830
H         -8.01871       -3.32312        1.04078
