45

C          1.47429       -0.04151        0.06342
C          0.64257       -0.70770        1.16750
C          0.99493       -0.11322        2.53888
O         -0.76838       -0.69640        0.85345
C         -1.43732        0.47395        1.06446
C         -2.29572        0.55859        2.15913
C         -3.05758        1.71206        2.36461
C         -2.97937        2.78115        1.46239
C         -3.81961        4.02273        1.65353
C         -5.12927        3.98086        0.85498
N         -6.11407        3.09016        1.45858
C         -7.12025        3.42549        2.33138
O         -7.53545        2.60198        3.14107
C         -7.72612        4.77712        2.28746
C         -8.02155        5.42433        3.49302
C         -8.62670        6.68410        3.47876
C         -8.94770        7.28493        2.26136
Cl        -9.68852        8.83753        2.24360
C         -8.68235        6.63236        1.05728
C         -8.08190        5.37069        1.06946
C         -2.13816        2.66770        0.34585
C         -1.38267        1.51177        0.14006
C          0.99233       -2.20396        1.19131
O          1.73444       -2.79935        0.42287
O          0.38249       -2.89223        2.18275
H          1.38540        1.04902        0.09504
H          1.14090       -0.36609       -0.92897
H          2.53957       -0.27992        0.16059
H          0.84996        0.97253        2.55505
H          0.36452       -0.53050        3.33193
H          2.04031       -0.31417        2.79974
H         -2.37829       -0.27658        2.84991
H         -3.72081        1.76307        3.22624
H         -4.02225        4.17727        2.72070
H         -3.22967        4.88889        1.32731
H         -5.52353        4.99695        0.80091
H         -4.96274        3.62566       -0.16746
H         -5.82782        2.12223        1.56363
H         -7.78800        4.94500        4.44160
H         -8.85254        7.18467        4.41687
H         -8.95042        7.09402        0.11038
H         -7.90658        4.84993        0.13123
H         -2.07662        3.47364       -0.38224
H         -0.77547        1.42494       -0.75516
H          0.66504       -3.81840        2.03355
