17

N          0.66627       -0.20626        0.05445
C         -0.03567       -0.95100       -0.86924
N         -1.08640       -0.37312       -1.45447
C         -1.75773       -1.10122       -2.36608
N         -2.82962       -0.42380       -2.96938
C         -1.38853       -2.39859       -2.72442
N         -2.08621       -3.11497       -3.67932
O         -2.57587       -4.15513       -3.22027
C         -0.26588       -2.89258       -2.05453
N          0.29199       -4.14942       -2.33738
N          0.41398       -2.17774       -1.13867
H          0.53181        0.77980       -0.12208
H          1.62018       -0.53605        0.11012
H         -2.94874        0.46727       -2.49430
H         -3.67986       -0.97879       -2.97783
H         -0.41372       -4.88068       -2.36087
H          1.03465       -4.33144       -1.66837
