41

C         -2.60841       -0.63046        0.09289
C         -1.22815       -0.02992        0.05407
C         -1.09890        1.37072        0.11468
C          0.15231        1.98701        0.01628
C          0.28818        3.49369        0.07825
C          0.84654        4.01608        1.38502
C          2.20968        3.89696        1.67752
C          2.74385        4.34242        2.89752
C          4.21818        4.16377        3.14209
C          1.89438        4.91756        3.86303
N          2.43777        5.46896        5.04051
C          0.53884        5.13533        3.53622
C         -0.38538        5.86810        4.47221
C          0.02155        4.64656        2.32145
C          1.27810        1.17527       -0.16142
C          1.18069       -0.22546       -0.18727
C          2.44095       -1.02822       -0.36820
C         -0.07588       -0.84109       -0.02389
N         -0.19969       -2.23774       -0.16466
H         -2.76423       -1.28313       -0.77272
H         -2.74605       -1.20517        1.01413
H         -3.38584        0.14005        0.05936
H         -1.99011        1.98621        0.22010
H          0.92708        3.83268       -0.74825
H         -0.68756        3.95877       -0.11647
H          2.87576        3.45184        0.94264
H          4.69237        5.12781        3.35026
H          4.38054        3.48330        3.98437
H          4.72309        3.73207        2.27094
H          1.76543        5.54773        5.79552
H          3.28420        5.00389        5.34946
H         -0.53208        5.28976        5.38976
H          0.02610        6.85206        4.72134
H         -1.36871        6.03581        4.02038
H         -1.03527        4.77880        2.09823
H          2.25414        1.63737       -0.28658
H          2.62342       -1.64800        0.51579
H          2.36639       -1.66429       -1.25554
H          3.31614       -0.38257       -0.50005
H          0.63284       -2.74596        0.11232
H         -1.02709       -2.61583        0.28334
