36

C          1.19151       -0.03638        0.21966
C          0.31122       -0.16379        1.21737
O         -1.07741       -0.02608        1.13368
C         -1.75879       -0.53155        0.05374
O         -1.28183       -1.27075       -0.80613
C         -3.23759       -0.12011        0.07760
C         -4.02407       -1.42126        0.34513
C         -3.57447        0.87401        1.20210
C         -3.66827        0.43841       -1.30920
C         -3.23876        1.87019       -1.67361
C         -1.74139        2.10601       -1.88580
C         -1.10896        1.32071       -3.04041
C         -1.62407        1.67524       -4.43732
C         -1.27459        3.09219       -4.86509
H          0.87955        0.16038       -0.80052
H          2.25568       -0.13042        0.40598
H          0.59843       -0.32032        2.25125
H         -3.70837       -1.88840        1.28529
H         -5.10173       -1.22999        0.41003
H         -3.86336       -2.15648       -0.45180
H         -2.95339        1.77474        1.15165
H         -4.62479        1.18328        1.15395
H         -3.40994        0.42841        2.19056
H         -3.35249       -0.24649       -2.10513
H         -4.76790        0.43268       -1.34464
H         -3.77397        2.16111       -2.58555
H         -3.59530        2.56535       -0.90473
H         -1.58160        3.17817       -2.05005
H         -1.20188        1.87655       -0.96212
H         -0.02413        1.48391       -3.01410
H         -1.25435        0.24766       -2.88507
H         -1.17331        0.97919       -5.15530
H         -2.70693        1.52594       -4.50124
H         -0.19604        3.26748       -4.79565
H         -1.57602        3.25606       -5.90463
H         -1.78698        3.83640       -4.24916
