38

F          0.88822        0.34154        0.31577
C          2.23278        0.23958        0.24633
F          2.54620       -1.07082        0.32000
F          2.61783        0.71438       -0.95600
N          2.83509        0.98035        1.32552
C          4.11114        0.99916        1.36935
S          5.32591        0.23164        0.40162
C          6.45190        0.06605        1.75867
N          7.29055       -0.90362        1.64885
C          8.12914       -1.26955        2.70722
C          9.51392       -1.22615        2.52659
C         10.37735       -1.61161        3.55403
C          9.85830       -2.06576        4.76504
C          8.47848       -2.14858        4.94288
C          7.61791       -1.76358        3.91260
N          6.11989        1.03168        2.68681
C          7.06687        1.57095        3.60705
C          8.36355        1.92351        3.19649
C          9.28311        2.45794        4.10238
C          8.91816        2.65712        5.43100
C          7.63356        2.32731        5.85468
C          6.71405        1.79209        4.94936
C          4.91925        1.70631        2.45665
N          4.54858        2.78942        3.05317
C          3.32222        3.44877        2.68475
F          3.22707        3.60925        1.34841
F          2.24531        2.78211        3.14228
F          3.29571        4.68276        3.23690
H          9.92160       -0.88757        1.57807
H         11.45279       -1.56385        3.40583
H         10.52911       -2.36840        5.56507
H          8.07242       -2.52100        5.87960
H          6.54533       -1.85646        4.05374
H          8.67346        1.79058        2.16230
H         10.28446        2.71884        3.76908
H          9.63386        3.07334        6.13558
H          7.34506        2.48822        6.89044
H          5.71730        1.54199        5.30579
