25

N          1.08354       -0.10547        0.05450
C          0.50617        1.25662        0.11405
C          1.19072        2.29239       -0.79283
O          1.39941        1.81224       -2.11916
C         -1.02470        1.27396       -0.07230
O         -1.72880        1.91528        0.71755
N         -1.67058        0.64506       -1.09100
C         -1.16109        0.04490       -2.33074
C         -1.60927       -1.41480       -2.44817
O         -3.03011       -1.54234       -2.38638
C         -1.62968        0.80265       -3.57076
O         -1.21108        0.63995       -4.70890
O         -2.65916        1.64735       -3.34096
H          1.08562       -0.44643       -0.89974
H          2.06244       -0.05843        0.33538
H          0.65684        1.59577        1.14840
H          0.59361        3.20788       -0.85852
H          2.17160        2.56352       -0.38574
H          2.21641        1.28487       -2.11387
H         -2.64808        0.91636       -1.12607
H         -0.07804        0.07965       -2.34941
H         -1.27318       -1.85432       -3.39289
H         -1.18989       -2.01171       -1.63086
H         -3.30253       -1.24742       -1.49877
H         -2.89269        1.97882       -4.23373
