59

C          1.21802       -0.44524       -0.36566
C          0.95324       -0.69167        1.10950
C          1.35560        0.48351        2.00230
C          0.64509        1.80450        1.69613
C         -0.88891        1.73579        1.68117
C         -1.52789        1.03889        2.89502
O         -1.07506        1.58448        4.12977
C         -3.02800        1.16199        2.88906
C         -3.81724        0.47175        3.73158
C         -5.30520        0.65282        3.85974
C         -5.94134       -0.44286        4.73199
O         -5.89453       -1.73120        4.13802
C         -7.37844        0.02630        4.87946
C         -7.26193        1.53775        5.05084
O         -7.42868        1.87511        6.42304
C         -5.88372        1.97209        4.46392
C         -5.05052        2.77058        5.49173
C         -3.77677        3.35628        4.96799
C         -3.64565        4.50229        4.28202
C         -2.32181        4.90821        3.69202
C         -2.43889        5.78913        2.44303
C         -2.88600        7.21920        2.73117
C         -1.82274        8.00497        3.44815
O         -0.99716        8.73510        2.93073
O         -1.82371        7.79895        4.77784
H          0.63938        0.40264       -0.74378
H          0.93041       -1.32574       -0.94807
H          2.27909       -0.24722       -0.54289
H         -0.10538       -0.93502        1.24406
H          1.51284       -1.57827        1.42936
H          1.17414        0.20794        3.04850
H          2.43755        0.64485        1.92014
H          0.97103        2.55252        2.43013
H          0.98663        2.19223        0.72881
H         -1.25272        2.76791        1.60352
H         -1.22187        1.23408        0.76418
H         -1.26522       -0.02262        2.89656
H         -0.22165        2.02163        4.00151
H         -3.46955        1.92211        2.24891
H         -3.34800       -0.25678        4.39276
H         -5.71690        0.53976        2.84407
H         -5.45313       -0.50135        5.71251
H         -6.21455       -1.66114        3.22234
H         -7.87368       -0.47283        5.71923
H         -7.94837       -0.21511        3.97400
H         -8.07304        2.03591        4.50937
H         -6.83298        1.32431        6.96035
H         -6.08035        2.64262        3.61466
H         -5.65896        3.59513        5.88589
H         -4.79989        2.13425        6.34940
H         -2.88803        2.76164        5.16676
H         -4.51568        5.12774        4.10635
H         -1.70397        5.38509        4.45681
H         -1.77831        4.00768        3.39322
H         -1.46193        5.81218        1.94253
H         -3.14028        5.32901        1.73496
H         -3.08263        7.73588        1.78393
H         -3.81977        7.26024        3.30025
H         -1.05346        8.30585        5.10810
