20

C          2.48182       -0.04325       -0.02180
C          0.98264        0.01923       -0.00994
C          0.23460       -1.16687        0.00451
C         -1.16176       -1.13005        0.02388
C         -1.82697        0.09425        0.02648
C         -1.08533        1.27837        0.00084
S         -1.93785        2.82607        0.01696
N         -2.72488        2.81671       -1.46763
O         -2.97424        2.77780        1.02141
O         -0.98264        3.90661       -0.06364
C          0.31289        1.24897       -0.01265
H          2.84342       -0.58360        0.85905
H          2.83047       -0.55278       -0.92572
H          2.92607        0.95739       -0.00624
H          0.74044       -2.13066        0.00530
H         -1.72860       -2.05771        0.04059
H         -2.91356        0.12150        0.04965
H         -3.73393        2.85173       -1.32187
H         -2.36560        3.57347       -2.05015
H          0.87901        2.17841       -0.02140
