24

O          1.00861       -0.16775       -0.30065
C          2.23135       -0.18967       -0.16513
N          2.92665        0.98574       -0.17393
C          4.31635        1.06082       -0.13810
C          4.95546        2.29362       -0.26784
C          6.35153        2.34680       -0.29420
C          7.10286        1.17476       -0.18415
C          6.46009       -0.05344       -0.02838
C          5.06343       -0.10311       -0.00117
C          4.35021       -1.38245        0.16325
O          4.99028       -2.39135        0.44942
N          2.96811       -1.35273       -0.00681
C          2.24605       -2.62408       -0.01605
C          2.02996       -3.17206       -1.42909
Cl         3.52792       -3.80864       -2.15557
H          2.36902        1.82236       -0.28883
H          4.38596        3.21390       -0.36399
H          6.85675        3.30324       -0.40980
H          8.18910        1.21699       -0.22011
H          7.04380       -0.96750        0.05911
H          2.76619       -3.36048        0.60681
H          1.26198       -2.46623        0.44195
H          1.31769       -4.00155       -1.40409
H          1.64498       -2.40403       -2.10598
