30

C          0.58211       -0.19327       -0.08516
C          0.30217       -1.67042       -0.28644
S          0.61024       -2.71623        1.17296
C          2.42940       -2.80801        1.25614
C          3.15137       -3.00220       -0.04631
C          3.04685       -4.28133       -0.64369
C          3.64067       -4.57688       -1.87327
C          4.35930       -3.59778       -2.54454
C          4.48656       -2.33292       -1.97752
C          3.89964       -2.03908       -0.73373
O          4.11282       -0.66448       -0.37384
C          4.14005        0.13816        0.77450
O          3.97880       -0.23658        1.92160
N          4.37281        1.45805        0.49737
C          4.72880        2.02475       -0.77759
H          0.21243        0.17881        0.87497
H          0.08698        0.38234       -0.87605
H          1.64518        0.02899       -0.15991
H         -0.76580       -1.78244       -0.50042
H          0.83012       -2.05728       -1.16196
H          2.79569       -1.98202        1.84523
H          2.64887       -3.68471        1.88208
H          2.47699       -5.06599       -0.14499
H          3.53229       -5.56889       -2.30477
H          4.81554       -3.81547       -3.50628
H          5.04285       -1.56472       -2.50879
H          4.33283        2.05718        1.31157
H          3.90285        2.65181       -1.12091
H          5.61425        2.64874       -0.62916
H          4.94926        1.25760       -1.52244
