21

C          0.93968       -0.03690       -0.02474
C          0.45159        1.40385        0.05686
C          0.92117        2.29403       -1.11250
C          0.44961        1.73723       -2.46514
C          0.44334        3.75879       -0.94709
C          0.92983        4.43267        0.33180
O          0.91029        4.54515       -2.04603
H          0.47970       -0.57337       -0.85940
H          0.67553       -0.57318        0.89269
H          2.02747       -0.07739       -0.13866
H         -0.64373        1.40808        0.11322
H          0.81983        1.81429        1.00318
H          2.01948        2.29296       -1.13467
H         -0.64257        1.66399       -2.50093
H          0.77323        2.37379       -3.29505
H          0.86566        0.74330       -2.65507
H         -0.65180        3.79650       -0.97312
H          2.01985        4.36566        0.41861
H          0.68125        5.49981        0.31824
H          0.47775        3.99336        1.22481
H          1.88244        4.51165       -2.04295
