22

Cl         1.24205        1.82052       -0.17263
C         -0.14390        0.78710       -0.07321
C         -1.39326        1.40919        0.00073
C         -2.55043        0.64201        0.08210
C         -2.45913       -0.74976        0.09595
C         -1.21331       -1.40698        0.02467
C         -1.19852       -2.88167        0.04713
C         -0.63972       -3.58703        1.12545
C         -0.63604       -4.98414        1.14474
C         -1.20239       -5.69780        0.09145
C         -1.77189       -5.01658       -0.98140
C         -1.76962       -3.61954       -1.00325
C         -0.04476       -0.61593       -0.06701
Cl         1.51602       -1.37352       -0.20561
H         -1.46918        2.49414       -0.00707
H         -3.52343        1.12472        0.13758
H         -3.37626       -1.33411        0.17010
H         -0.19484       -3.04914        1.96038
H         -0.18807       -5.51321        1.98189
H         -1.19780       -6.78461        0.10592
H         -2.21463       -5.57148       -1.80441
H         -2.21291       -3.10652       -1.85437
