17

C          0.96739       -0.15966       -0.02695
C          0.44237        0.82274        1.01034
C          0.93347        2.26509        0.79681
C          0.45004        2.85530       -0.52866
C          0.46864        3.14900        1.95666
H          0.56289        0.05112       -1.02113
H          0.67139       -1.17952        0.23947
H          2.06004       -0.12772       -0.08152
H         -0.65415        0.79353        1.00867
H          0.76492        0.47758        2.00065
H          2.03086        2.26607        0.79250
H         -0.64200        2.82011       -0.60425
H          0.76158        3.90114       -0.62436
H          0.86917        2.31378       -1.38208
H          0.84118        2.76527        2.91236
H          0.84239        4.17194        1.84089
H         -0.62457        3.19156        2.01090
