196

C          1.93344       -0.34526       -0.75004
C          1.66518       -1.64262       -0.05681
C          2.35853       -2.09826        1.00015
C          1.91181       -3.26295        1.85835
C          1.58837       -2.92578        3.35962
C          1.29956       -1.41454        3.57695
C          0.60999       -4.06920        3.95714
O          1.47995       -5.16237        4.30698
C         -0.31459       -3.70620        5.16072
C         -1.10003       -4.84088        6.00385
O         -0.66109       -6.00117        5.96721
N         -2.04107       -4.58125        7.02155
C         -3.31032       -3.79843        6.88369
C         -4.26174       -4.47162        5.86738
C         -5.18923       -5.53661        6.42654
C         -4.18197       -3.08958        8.00861
O         -4.86125       -2.10963        7.66530
N         -4.35776       -3.57649        9.30085
C         -4.46958       -4.99426        9.55863
C         -5.16245       -2.71216       10.19912
C         -4.33619       -1.59714       10.88559
O         -3.95396       -0.61969       10.24619
N         -4.02871       -1.77181       12.24210
C         -3.65810       -3.12044       12.66166
C         -3.41962       -0.66241       13.04669
C         -2.08077       -0.08346       12.50047
C         -2.10178        1.32526       11.91476
C         -2.15648        2.41038       12.99024
C         -0.90136        1.61477       11.01048
C         -4.41111        0.23814       13.87804
O         -4.21274        0.35359       15.10039
N         -5.49052        0.93733       13.42818
C         -5.87696        1.35967       12.08392
C         -7.27527        0.85581       11.64963
C         -8.48007        1.50032       12.32426
C         -7.45148        0.93389       10.12883
C         -5.43203        2.81241       11.72348
O         -4.38309        2.90937       11.08997
N         -6.03964        3.99056       12.07223
C         -6.85886        4.13884       13.26106
C         -5.52901        5.28161       11.45173
C         -4.20336        5.84470       12.07517
C         -2.86115        5.93825       11.31587
C         -2.81983        7.07736       10.29480
C         -1.67704        6.14315       12.27689
C         -5.96308        5.50516        9.95685
O         -7.13913        5.82009        9.71429
N         -5.17704        5.34033        8.85213
C         -4.15645        4.31501        8.68926
C         -4.83611        3.02222        8.26282
C         -2.80441        4.67777        8.00516
O         -1.78018        4.01195        8.18934
N         -2.66282        5.75032        7.15586
C         -3.53751        5.87212        6.00915
C         -3.39148        7.13509        5.18075
C         -3.42217        4.59915        5.16487
O         -4.47460        4.01816        4.99076
N         -2.22137        4.13150        4.66639
C         -0.96707        4.87867        4.60484
C         -2.11241        2.70679        4.26093
C         -1.63276        1.74822        5.37421
C         -2.61390        1.30641        6.47126
C         -3.56764        0.19751        6.05578
C         -1.91036        0.87935        7.77566
C         -2.85422        2.14972        2.99855
O         -2.30590        2.39599        1.91579
N         -4.01190        1.38727        3.05143
C         -5.12959        1.79398        3.89916
C         -4.45741        0.61084        1.86849
C         -5.09038        1.48224        0.74407
C         -4.19716        2.09190       -0.35102
C         -4.13692        1.19132       -1.58006
C         -4.69406        3.49000       -0.74351
C         -3.74940       -0.74731        1.50285
O         -4.34292       -1.55959        0.78870
N         -2.42342       -0.95315        1.89910
C         -1.48831       -0.29386        1.00625
C         -1.92231       -2.26621        2.47414
C         -2.35630       -3.59831        1.80013
C         -3.80564       -4.05183        1.99080
C         -1.94747       -3.67528        0.32915
C         -2.13223       -2.31956        4.02984
O         -3.26944       -2.10345        4.44825
N         -1.04952       -2.48548        4.91899
C         -0.79075       -1.56110        5.99638
H          1.50543        0.47920       -0.16810
H          1.44488       -0.33760       -1.73015
H          3.00081       -0.16529       -0.89713
H          0.79713       -2.18769       -0.41186
H          3.22841       -1.54124        1.34608
H          1.03519       -3.72643        1.39430
H          2.70234       -4.02253        1.83993
H          2.54773       -3.06626        3.88064
H          0.25949       -1.12832        3.66023
H          1.81915       -1.05827        4.47222
H          1.65931       -0.76171        2.77897
H         -0.01234       -4.45472        3.15475
H          0.94284       -5.84737        4.75853
H          0.44850       -3.46722        5.92442
H         -2.17750       -5.42230        7.56545
H         -2.92911       -2.90841        6.41694
H         -4.90517       -3.70481        5.41941
H         -3.68031       -4.91127        5.05002
H         -5.94434       -5.09177        7.08239
H         -5.73072       -6.02112        5.60787
H         -4.64398       -6.31004        6.97161
H         -4.27063       -5.19740       10.61272
H         -5.49700       -5.30330        9.33326
H         -3.77866       -5.56835        8.94837
H         -5.97036       -2.21492        9.64478
H         -5.69253       -3.31568       10.94210
H         -2.75537       -3.41402       12.11464
H         -3.46997       -3.17215       13.73666
H         -4.45265       -3.83367       12.44689
H         -3.01775       -1.23412       13.89948
H         -1.34099       -0.08940       13.31301
H         -1.68502       -0.78102       11.75045
H         -2.96798        1.36211       11.26688
H         -1.20168        2.49673       13.51890
H         -2.36220        3.37844       12.53372
H         -2.92969        2.24286       13.73795
H         -0.71257        0.78833       10.32069
H         -1.09995        2.51185       10.41093
H          0.01222        1.79502       11.58374
H         -5.92787        1.42985       14.19502
H         -5.21083        0.77923       11.45337
H         -7.31589       -0.21218       11.90999
H         -8.61159        2.53883       12.00983
H         -9.39832        0.97091       12.04249
H         -8.40446        1.45410       13.41370
H         -6.61018        0.46776        9.60564
H         -8.36089        0.40806        9.81741
H         -7.53962        1.97104        9.79340
H         -6.34482        4.80338       13.96303
H         -7.81585        4.58606       12.97909
H         -7.02392        3.19363       13.77101
H         -6.24101        6.00082       11.89662
H         -4.42473        6.86737       12.41521
H         -4.02649        5.28009       13.00015
H         -2.64225        4.98757       10.83927
H         -2.81249        8.05446       10.78799
H         -1.90927        7.00902        9.68834
H         -3.67020        7.07857        9.61653
H         -1.75269        5.50497       13.16141
H         -0.74096        5.88225       11.76649
H         -1.59597        7.18145       12.61126
H         -5.73716        5.49424        8.02370
H         -3.79300        4.14470        9.67775
H         -5.08009        3.00380        7.20150
H         -4.22839        2.15571        8.51301
H         -5.77702        2.87374        8.79680
H         -1.67882        5.82771        6.93746
H         -4.56109        5.87783        6.39248
H         -2.37630        7.32751        4.83394
H         -4.02856        7.06934        4.29040
H         -3.70399        8.00883        5.75907
H         -0.20187        4.35628        5.18751
H         -0.64737        4.92874        3.55835
H         -1.03670        5.89120        4.98242
H         -1.12853        2.75808        3.75050
H         -1.18907        0.90069        4.84956
H         -0.79040        2.23924        5.88206
H         -3.19326        2.19357        6.67766
H         -3.28888       -0.76009        6.48562
H         -4.59168        0.38038        6.38713
H         -3.55930        0.06260        4.97970
H         -0.92841        1.34112        7.89487
H         -2.51483        1.13768        8.64465
H         -1.77550       -0.19978        7.87091
H         -5.56231        2.71247        3.49248
H         -5.91763        1.03508        3.92843
H         -4.81511        1.93736        4.92256
H         -5.36530        0.12728        2.27087
H         -5.87218        0.88611        0.25419
H         -5.63588        2.29958        1.23600
H         -3.17708        2.22473       -0.01162
H         -5.10682        1.14518       -2.08527
H         -3.39952        1.57201       -2.29427
H         -3.84199        0.17468       -1.30697
H         -4.71581        4.15548        0.12785
H         -4.02517        3.94525       -1.48221
H         -5.70147        3.45588       -1.17033
H         -0.61076        0.03443        1.56531
H         -1.20119       -0.98942        0.21554
H         -1.94068        0.55463        0.49833
H         -0.84358       -2.21541        2.33251
H         -1.77797       -4.37804        2.30305
H         -4.37338       -4.02210        1.05592
H         -3.81895       -5.09656        2.32382
H         -4.34683       -3.47055        2.73850
H         -0.92625       -3.32100        0.18955
H         -1.97661       -4.71126       -0.02258
H         -2.60122       -3.08121       -0.31496
H          0.28003       -1.33435        6.05507
H         -1.29807       -0.65822        5.78144
H         -1.08544       -1.97572        6.96075
