21

C          0.91050       -0.02854        0.05081
C          0.27789        0.25287       -1.10248
C         -1.21895        0.30760       -1.22174
C         -1.74473        1.69753       -1.50212
O         -2.63996        1.97595       -2.28502
O         -1.20376        2.65652       -0.72587
C          1.11781        0.46662       -2.31401
O          2.31058        0.20788       -2.37793
O          0.36447        0.97647       -3.31808
C          1.04685        1.20909       -4.55923
C          1.80609        2.52286       -4.52008
H          0.36367       -0.20882        0.97053
H          1.99552       -0.07895        0.10915
H         -1.54481       -0.35606       -2.03140
H         -1.70741       -0.04623       -0.30607
H         -1.66881        3.47454       -1.00102
H          1.70621        0.36895       -4.80572
H          0.27886        1.25526       -5.33842
H          2.60514        2.49546       -3.77270
H          2.25283        2.73986       -5.49459
H          1.13961        3.34622       -4.24378
