20

C          0.95476       -0.05630        0.00384
C          0.35455       -1.45301       -0.12391
S          1.04490       -2.57374        1.08083
C          0.38125       -2.11839        2.66845
O          0.60972       -3.92316        0.78012
O          2.47343       -2.30373        1.13827
S         -1.41949       -1.42145       -0.05039
C         -1.89004       -0.43227       -1.45153
O         -1.94082       -2.74830       -0.30663
O         -1.81680       -0.68819        1.13590
H          0.66819        0.42127        0.94634
H          0.62442        0.59527       -0.80990
H          2.04812       -0.08338       -0.03431
H          0.62069       -1.87513       -1.09971
H         -0.68004       -2.36009        2.71047
H          0.91127       -2.70078        3.42642
H          0.55989       -1.05606        2.84055
H         -1.41993       -0.83904       -2.34855
H         -2.97705       -0.48043       -1.54912
H         -1.58736        0.60218       -1.28486
