17

C         -2.94363        0.02744        0.04368
C         -1.44452        0.02821        0.01931
C         -0.74382       -1.18209       -0.00010
C          0.65423       -1.19130       -0.03202
C          1.37743        0.00236        0.00026
N          2.76895       -0.01043       -0.15815
C          0.67505        1.20833       -0.04278
C         -0.72329        1.22516       -0.01157
H         -3.33513       -0.47155       -0.84865
H         -3.30612       -0.49310        0.93597
H         -3.34581        1.04571        0.06324
H         -1.28171       -2.12720       -0.00680
H          1.17370       -2.14425       -0.08206
H          3.20858       -0.85548        0.19224
H          3.22327        0.82969        0.18527
H          1.21163        2.15141       -0.10088
H         -1.24074        2.18128       -0.02701
