49

C          1.73969        0.23106        0.96816
C          0.80330        1.43155        1.05724
C          1.17890        2.55143        0.08114
N          0.47640        2.43827       -1.21243
C         -0.67313        3.33156       -1.47474
C         -0.33058        4.49741       -2.40956
C         -0.60939        4.18746       -3.87742
C          0.90785        1.54849       -2.18333
C          1.97469        1.83703       -3.07025
N          2.69141        3.10502       -3.02400
O          2.65094        3.80216       -4.04836
O          3.35993        3.35776       -2.01498
C          2.37200        0.97142       -4.10575
C          1.71669       -0.24465       -4.27188
S          2.18341       -1.29754       -5.62564
O          1.10391       -1.20014       -6.58436
O          3.54627       -0.94456       -5.97050
N          2.18226       -2.84364       -4.90220
S          2.61055       -4.27005       -5.66728
C          1.71569       -4.27539       -7.19477
C          4.31916       -4.06654       -6.07556
C          0.68633       -0.60832       -3.41170
C          0.29371        0.28687       -2.39481
N         -0.76151       -0.20391       -1.51582
O         -0.53296       -1.26923       -0.92360
O         -1.83331        0.41169       -1.48760
H          1.88993       -0.10962       -0.05818
H          1.33757       -0.60677        1.54668
H          2.72367        0.47985        1.37875
H         -0.23562        1.11714        0.91514
H          0.87220        1.81861        2.08142
H          0.91154        3.50970        0.54378
H          2.26373        2.57743       -0.04653
H         -1.52791        2.77870       -1.87371
H         -1.01357        3.75333       -0.52078
H         -0.95325        5.35967       -2.14103
H          0.70656        4.81859       -2.27436
H         -1.68752        4.14414       -4.06275
H         -0.19184        4.97228       -4.51652
H         -0.18409        3.23413       -4.19702
H          3.16700        1.26689       -4.79159
H          2.37322       -5.35457       -4.90775
H          2.03275       -3.43236       -7.80961
H          1.94197       -5.21063       -7.71070
H          0.64839       -4.22157       -6.97428
H          4.87149       -3.84855       -5.16004
H          4.67273       -5.00341       -6.51002
H          4.43058       -3.26063       -6.80098
H          0.17769       -1.56517       -3.52595
