35

C          1.16749       -0.20537        0.14062
C          0.50360       -1.38118       -0.55646
N          0.90671       -2.66311        0.04116
C          0.22898       -3.78019       -0.62719
C         -0.54359       -4.65106        0.39666
C          0.20351       -5.76708        1.15475
C          1.19350       -5.27005        2.19826
S          0.95350       -6.94505        0.02028
O          2.11528       -7.56275        0.62251
O         -0.09500       -7.70709       -0.62586
C          1.55988       -5.85765       -1.23556
S          2.65940       -6.48535       -2.36950
C          2.72886       -4.99915       -3.20990
S          3.77978       -4.93836       -4.63421
N          5.30607       -5.48478       -4.20173
O          3.24287       -5.87190       -5.59453
O          3.93826       -3.53175       -4.92324
C          1.91595       -4.04700       -2.62232
C          1.22371       -4.53892       -1.46653
H          0.89529       -0.16721        1.20003
H          0.84001        0.73228       -0.32285
H          2.25785       -0.25529        0.06042
H         -0.58324       -1.25898       -0.47788
H          0.76871       -1.35177       -1.61965
H          1.92076       -2.75579       -0.02752
H         -0.53351       -3.39612       -1.32024
H         -1.36565       -5.13141       -0.15261
H         -1.03679       -3.99485        1.12747
H         -0.55369       -6.35731        1.68898
H          0.70899       -4.58098        2.89721
H          1.57563       -6.11155        2.78914
H          2.05482       -4.76972        1.74839
H          5.67613       -6.07199       -4.95100
H          5.91230       -4.68913       -4.00054
H          1.82187       -3.04386       -3.02349
