19

O          1.01416        0.59767       -0.14716
C          2.15803        0.19867       -0.04164
O          2.80540       -0.54495       -0.95668
C          2.99220        0.53712        1.12240
C          4.20548        1.21022        0.91925
C          4.96299        1.63254        2.01870
C          4.49977        1.39253        3.32402
N          5.30272        1.83612        4.47303
O          6.35900        2.43627        4.23551
O          4.87606        1.57131        5.60406
C          3.28502        0.72929        3.54061
C          2.54268        0.31137        2.42675
N          1.32740       -0.44557        2.66052
O          0.49566        0.05170        3.42836
O          1.27246       -1.57145        2.15040
H          3.66481       -0.91713       -0.68164
H          4.54919        1.44273       -0.08852
H          5.90033        2.16118        1.84332
H          2.91978        0.53261        4.54834
