35

C          0.29693        0.51994        0.21590
O          1.05184       -0.34274       -0.63227
C          1.23357        0.21968       -1.87467
N          0.11968        0.70765       -2.46426
C          0.27646        1.21904       -3.68640
N          1.43009        1.29730       -4.34641
C          2.50692        0.81330       -3.71297
N          3.69496        0.78315       -4.49415
S          4.15514        2.20281       -5.26491
O          4.05462        3.28531       -4.30546
O          5.41404        1.91896       -5.92139
C          2.95370        2.45274       -6.54831
C          2.49603        1.36300       -7.29256
C          1.41824        1.53381       -8.16524
C          0.83504        2.79274       -8.34747
N         -0.35161        2.91630       -9.08083
C          1.30210        3.87073       -7.58763
C          2.36913        3.71167       -6.70020
C          2.48132        0.19624       -2.47202
O          3.66612       -0.30313       -2.01312
C          3.62381       -1.16898       -0.88577
H          0.21712        0.03653        1.19393
H         -0.71989        0.68487       -0.15554
H          0.81911        1.47367        0.35268
H         -0.60713        1.59610       -4.19018
H          4.49056        0.34231       -4.03432
H          2.92164        0.37399       -7.14617
H          1.01736        0.66559       -8.68163
H         -0.53051        3.85761       -9.41601
H         -0.45849        2.21936       -9.81083
H          0.81816        4.84135       -7.65920
H          2.70199        4.55556       -6.10054
H          3.37434       -0.61807        0.02611
H          2.94458       -2.01120       -1.05423
H          4.62829       -1.58087       -0.74829
