17

N          1.09898       -0.03647       -0.09186
N          0.43808       -0.66262       -1.16713
C         -0.26082       -1.85668       -1.07951
O         -0.57675       -2.47227       -2.09510
C         -0.60142       -2.41869        0.24692
C         -1.13478       -1.62490        1.26053
C         -1.42670       -2.23387        2.46611
N         -1.23046       -3.54855        2.70869
C         -0.74062       -4.29625        1.69554
C         -0.41864       -3.78494        0.45323
H          1.49312       -0.75371        0.52506
H          1.91483        0.46279       -0.45745
H          0.61420       -0.35148       -2.12213
H         -1.32356       -0.56696        1.11587
H         -1.84122       -1.66671        3.29492
H         -0.61107       -5.35161        1.91848
H         -0.03439       -4.42803       -0.33113
