39

C          1.11722       -0.00945        0.23997
C          0.81926        1.47707        0.11530
C          1.25685        2.07758       -1.22383
C          0.59381        1.47131       -2.46526
C         -0.93619        1.53391       -2.48312
C         -1.53036        2.94651       -2.49289
C         -1.20009        3.79054       -3.73223
C         -1.58020        3.16193       -5.07968
N         -3.01956        2.94195       -5.19115
C         -3.40051        2.21264       -6.41063
C         -3.04652        0.70830       -6.40349
O         -3.61902        0.07802       -5.25234
C         -3.56821       -0.00305       -7.65736
O         -2.98393        0.51792       -8.84484
H          0.54338       -0.59778       -0.48202
H          0.85040       -0.36368        1.24087
H          2.18162       -0.21025        0.08253
H         -0.24906        1.65166        0.28268
H          1.34579        2.00547        0.91914
H          1.07064        3.15763       -1.20140
H          2.34347        1.96155       -1.32370
H          0.99317        1.97221       -3.35497
H          0.89826        0.42201       -2.55921
H         -1.29247        0.97825       -3.35660
H         -1.33619        0.99344       -1.61773
H         -2.61915        2.86271       -2.39381
H         -1.19958        3.49221       -1.60158
H         -1.70436        4.76074       -3.63405
H         -0.12592        4.01147       -3.74288
H         -1.26311        3.84506       -5.87691
H         -1.01662        2.23417       -5.21385
H         -3.39956        2.46955       -4.37494
H         -4.49007        2.30889       -6.49437
H         -2.97447        2.71007       -7.28941
H         -1.95938        0.57838       -6.36016
H         -3.12097        0.40087       -4.48381
H         -3.32245       -1.06943       -7.60090
H         -4.66015        0.05934       -7.72929
H         -3.53358        1.26452       -9.13987
