22

C          0.62626        0.21237       -0.08572
C          0.45317       -1.25844        0.27684
C          0.97007       -1.65481        1.68533
C          0.30282       -0.82183        2.78777
C          0.62550       -3.12472        1.88491
O         -0.37296       -3.52289        2.47881
N          1.48155       -4.01571        1.29529
C          2.80097       -3.76896        1.07134
O          3.60694       -4.68274        0.92989
N          3.20380       -2.47050        1.12215
C          2.48106       -1.48298        1.73400
O          3.04951       -0.51955        2.24021
H          0.04964        0.86288        0.57821
H          0.26829        0.38670       -1.10573
H          1.67678        0.51540       -0.04703
H         -0.61374       -1.50791        0.19819
H          0.95622       -1.85620       -0.49482
H          0.59730        0.23212        2.74681
H         -0.78988       -0.86959        2.71891
H          0.58526       -1.19287        3.78050
H          1.24625       -4.99206        1.41523
H          4.20748       -2.34540        1.13874
