18

C          0.97330        0.04033       -0.07546
C          0.32550       -0.76634        0.78181
C         -1.16515       -0.89494        0.80808
C          1.14095       -1.53979        1.75726
O          2.31608       -1.32230        2.00820
O          0.38891       -2.51349        2.32734
C          1.09527       -3.35415        3.26253
C          1.87678       -4.47302        2.58763
F          2.86985       -4.02349        1.79640
F          2.43405       -5.28318        3.51962
F          1.06230       -5.24247        1.82799
H          0.43885        0.63792       -0.80678
H          2.05771        0.12395       -0.07252
H         -1.47227       -1.91154        0.54231
H         -1.55314       -0.65928        1.80474
H         -1.64467       -0.20961        0.10067
H          1.74475       -2.75373        3.91025
H          0.33291       -3.79759        3.91195
