26

C          1.12404       -0.06255        0.14970
C          0.52493       -1.35153       -0.41410
C          0.96712       -2.54497        0.43638
C         -1.01306       -1.29557       -0.48235
C         -1.59601       -0.21284       -1.40244
C         -1.15153       -0.29462       -2.87140
C         -1.59358       -1.58069       -3.56414
C         -1.65905        0.90547       -3.63768
O         -0.96505        1.75525       -4.17273
O         -3.00072        0.98567       -3.69921
H          0.73688        0.14931        1.15221
H          0.90042        0.79584       -0.49077
H          2.21441       -0.14023        0.21932
H          0.92942       -1.50905       -1.42009
H          0.60301       -2.45942        1.46556
H          0.58598       -3.48212        0.01675
H          2.05973       -2.61578        0.46693
H         -1.39738       -2.27326       -0.79797
H         -1.41112       -1.13151        0.52798
H         -2.69096       -0.28196       -1.34965
H         -1.35057        0.77835       -1.00133
H         -0.05820       -0.23565       -2.92492
H         -2.67835       -1.71892       -3.49895
H         -1.32823       -1.56015       -4.62694
H         -1.11214       -2.45705       -3.11959
H         -3.16350        1.80001       -4.22004
