21

C          1.08234       -0.01823       -0.00014
C          0.54273       -0.47640        1.34911
C          0.89208        0.42022        2.51507
C          1.24064       -0.15500        3.74673
C          1.51540        0.64604        4.85900
C          1.43885        2.03850        4.75864
C          1.72408        2.84929        5.96656
O          2.00389        2.41455        7.06890
O          1.64506        4.17269        5.73973
C          1.08453        2.62186        3.53826
C          0.80572        1.81688        2.42852
H          0.63779        0.93078       -0.31550
H          0.84513       -0.76087       -0.76913
H          2.16970        0.10672        0.02941
H         -0.54902       -0.56415        1.29710
H          0.93333       -1.48450        1.53680
H          1.29540       -1.23686        3.85295
H          1.78201        0.17778        5.80453
H          1.85283        4.57103        6.61071
H          1.01160        3.70222        3.44007
H          0.51092        2.29983        1.50002
