21

O          1.48314        0.37006        0.22955
N          2.68096        0.07263        0.17569
N          3.04700       -0.75165       -0.92519
C          1.98474       -1.17553       -1.84426
C          1.96383       -0.47474       -3.20404
Cl         2.21710        1.28049       -3.12676
C          4.40047       -0.98883       -0.98564
O          5.20517       -0.51117       -0.17727
N          4.99544       -1.75738       -1.92060
C          4.64387       -2.66102       -3.00547
C          5.23479       -2.20730       -4.34145
Cl         7.01609       -2.23937       -4.30373
H          2.05853       -2.25865       -1.97204
H          0.99856       -1.04775       -1.38232
H          2.72453       -0.87194       -3.87509
H          0.99515       -0.64260       -3.68613
H          5.99493       -1.73864       -1.72961
H          5.04960       -3.64214       -2.73253
H          3.57105       -2.78503       -3.09799
H          4.91100       -2.87126       -5.14769
H          4.93254       -1.18432       -4.58360
