30

O          1.31957        0.68592        0.57748
C          2.47869        0.42997        0.24443
N          3.13046       -0.59102        0.88837
C          4.49696       -1.02734        0.84090
N          4.99402       -0.92608        2.20825
C          5.27853        0.47716        2.59794
C          6.52442        1.08143        1.92520
O          7.68499        0.27251        2.15122
C          7.47145       -1.06864        1.69757
C          6.24427       -1.70085        2.37672
C          3.12225        1.25949       -0.81203
C          2.55486        2.49025       -1.12333
N          3.07321        3.32245       -2.06500
C          4.17501        2.86253       -2.69661
C          4.73552        1.63067       -2.40175
N          4.22748        0.80217       -1.45810
H          2.58032       -1.02415        1.61624
H          4.45184       -2.07697        0.52892
H          5.11435       -0.49407        0.12525
H          5.43881        0.48343        3.68407
H          4.41045        1.12225        2.42236
H          6.38425        1.21544        0.84700
H          6.72673        2.06988        2.35024
H          8.36707       -1.64588        1.94896
H          7.37666       -1.06982        0.60577
H          6.44247       -1.76956        3.45443
H          6.10827       -2.73129        2.02781
H          1.66477        2.85261       -0.61817
H          4.59835        3.51451       -3.45258
H          5.61863        1.27541       -2.92166
