22

C          1.03717        0.09234       -0.04879
C          0.51791        0.58952       -1.39443
C          0.88914       -0.30456       -2.60869
C          0.31349       -1.71364       -2.42022
C          0.32987        0.37396       -3.86763
O          2.34273       -0.32617       -2.64155
C          3.12080       -0.96359       -3.52374
N          2.81012       -1.68423       -4.52963
O          4.41243       -0.77592       -3.25490
H          0.58679       -0.86542        0.22699
H          0.78259        0.81252        0.73595
H          2.12516       -0.02286       -0.05532
H         -0.57149        0.70288       -1.33028
H          0.93561        1.59306       -1.55042
H         -0.75095       -1.67535       -2.16448
H          0.40173       -2.32212       -3.32403
H          0.84570       -2.25844       -1.63330
H          0.79530        1.35488       -4.01764
H          0.52505       -0.20056       -4.77631
H         -0.75444        0.51188       -3.79538
H          1.80099       -1.74708       -4.62676
H          4.90302       -1.26429       -3.93425
