23

Cl        -2.62889        0.94327        0.22027
C         -1.18954        0.00388        0.14899
C         -1.25626       -1.37648        0.32428
C         -0.09014       -2.14652        0.26746
C          1.14664       -1.53595        0.01859
O          2.34846       -2.21211       -0.06755
C          2.33970       -3.58442       -0.09647
C          2.76114       -4.24701        1.06009
C          2.82340       -5.64037        1.08123
C          2.47698       -6.37124       -0.05557
C          2.08151       -5.70918       -1.22049
C          2.02557       -4.31371       -1.24899
Cl         1.57381       -3.54016       -2.72367
C          1.19648       -0.14138       -0.14273
Cl         2.69396        0.67785       -0.42167
C          0.03273        0.62858       -0.07897
H         -2.21266       -1.86215        0.50426
H         -0.17717       -3.21902        0.41509
H          3.04547       -3.67620        1.94059
H          3.15096       -6.15603        1.98107
H          2.52863       -7.45754       -0.03953
H          1.82954       -6.28744       -2.10607
H          0.08100        1.70609       -0.20800
