12

C          2.17865        0.01582       -0.01503
N          0.73946       -0.02682       -0.00503
C         -0.02833       -1.15649       -0.00547
C         -1.32587       -0.69981        0.00417
N         -1.35895        0.67113        0.01125
C         -0.09978        1.04809        0.00570
H          2.54697       -0.51529        0.86634
H          2.53215       -0.46846       -0.92883
H          2.51580        1.05513        0.00969
H          0.39052       -2.15272       -0.01272
H         -2.23698       -1.28388        0.00639
H          0.24867        2.07275        0.00879
