14

O          0.86452       -0.02665       -0.16744
C          0.25075       -1.24259       -0.22982
C          0.62922       -2.28780        0.60893
C         -0.02095       -3.52044        0.51038
C         -1.04206       -3.69224       -0.42654
O         -1.67508       -4.90086       -0.52568
C         -1.41782       -2.63474       -1.26244
Cl        -2.67685       -2.81379       -2.42938
C         -0.76800       -1.40475       -1.16278
H          1.56413       -0.05783        0.50579
H          1.42218       -2.16193        1.34017
H          0.27928       -4.33070        1.16792
H         -1.28310       -5.52561        0.10487
H         -1.04846       -0.57614       -1.80612
