36

C          2.01584        1.40712        0.64550
C          1.73674        1.03829       -0.78054
O          1.11929        1.73393       -1.57244
O          2.25825       -0.18943       -1.04769
C          1.95468       -0.68210       -2.35001
C          2.03484       -2.20429       -2.39456
C          1.63018       -3.00933       -1.39000
C          1.03839       -2.42946       -0.14679
O          1.46079       -2.56573        0.98531
O         -0.12443       -1.80795       -0.42020
N          1.56508       -4.38111       -1.46134
C          0.35112       -5.00687       -1.26391
O         -0.49429       -4.92500       -0.40213
C          0.34347       -5.46409       -2.75875
N         -0.48455       -4.55120       -3.62053
C         -1.82841       -4.62447       -3.87396
O         -2.39953       -3.64043       -4.34195
C         -2.55515       -5.91555       -3.59874
C         -1.89264       -6.96965       -4.47073
N         -1.34304       -7.84411       -5.19412
C          1.86393       -5.15877       -2.65639
S          2.62100       -4.39316       -4.07599
C          2.51244       -2.65603       -3.73552
H          1.52477        0.70079        1.32197
H          1.63606        2.41576        0.82818
H          3.09174        1.41474        0.83270
H          0.95208       -0.38750       -2.68770
H          2.68837       -0.23889       -3.03488
H         -0.49772       -1.62226        0.46654
H          0.13007       -6.52529       -2.89863
H         -0.11791       -3.63447       -3.85765
H         -2.48024       -6.17461       -2.53933
H         -3.60967       -5.81127       -3.87019
H          2.43144       -6.05896       -2.37397
H          3.50975       -2.23911       -3.91402
H          1.85548       -2.23195       -4.50398
