43

C          2.17781        2.07998        0.77226
C          1.61259        2.80552        1.97997
C          0.77159        4.02632        1.59898
C         -0.42653        3.76586        0.67940
S         -1.65825        2.64281        1.41054
P         -1.84039        0.99361        0.11442
S         -1.43913       -0.53731        1.49538
C          0.33426       -0.90692        1.52431
C          0.94339       -1.78096        0.41724
C          0.68447       -1.44872       -1.05768
C          1.78866       -0.66015       -1.74674
S         -3.93783        0.90302        0.03226
C         -4.59599       -0.79068        0.08468
C         -4.46470       -1.61132       -1.20314
C         -3.09442       -2.22867       -1.48239
C         -2.68591       -3.30737       -0.48864
H          2.76857        2.74581        0.13842
H          1.36914        1.66839        0.16684
H          2.81732        1.24873        1.08695
H          1.02234        2.11359        2.59046
H          2.44666        3.13215        2.61126
H          0.42710        4.51399        2.51921
H          1.42890        4.75029        1.10035
H         -0.92956        4.71956        0.48451
H         -0.09260        3.39074       -0.29333
H          0.88579        0.02057        1.63216
H          0.49314       -1.44616        2.46764
H          2.02586       -1.82189        0.59044
H          0.58560       -2.80456        0.58568
H          0.60080       -2.40324       -1.59567
H         -0.25912       -0.94152       -1.21189
H          2.77555       -1.08135       -1.54774
H          1.62953       -0.67653       -2.83173
H          1.78634        0.38796       -1.44454
H         -4.21240       -1.32577        0.95563
H         -5.66910       -0.66297        0.27148
H         -5.19266       -2.43165       -1.15370
H         -4.76076       -0.99788       -2.06310
H         -3.11110       -2.68265       -2.48067
H         -2.33749       -1.44726       -1.52709
H         -3.31139       -4.19734       -0.60382
H         -1.64624       -3.60395       -0.66143
H         -2.76895       -2.97870        0.54884
