21

C          0.21288        0.16198       -0.13368
C          0.17784        0.36087        1.37354
O          0.95205        1.47018        1.82416
P          2.68205        1.47018        1.82416
O          2.72397       -0.01404        1.41636
C          2.60420        2.35405        0.10461
N          2.55559        2.91006       -0.92078
N          4.46205        1.47018        1.82417
C          5.00003        0.90315        3.06414
C          5.19673        0.90834        0.68444
H         -0.07645        1.07921       -0.65522
H         -0.46979       -0.64048       -0.42887
H          1.20993       -0.10854       -0.49233
H         -0.85726        0.57445        1.66140
H          0.46249       -0.54823        1.91294
H          4.82514       -0.17639        3.12539
H          6.07542        1.09132        3.15217
H          4.52142        1.37456        3.92861
H          5.02560       -0.16590        0.56143
H          4.93719        1.40747       -0.25173
H          6.27468        1.06312        0.81184
