20

C          1.23219       -0.12104        0.18285
N          0.35919       -0.15188        1.33440
C         -0.53584        0.69050        1.90462
O         -0.95363        0.28582        2.99492
N         -0.96819        1.84377        1.28347
C         -0.75898        2.06383       -0.14154
C         -1.60786        2.81682        2.07043
O         -1.94108        2.66178        3.25054
C         -1.96255        4.15852        1.45355
C         -0.69588        4.93496        1.13247
N          0.35492        5.57909        0.86610
H          1.58042        0.88791       -0.03176
H          0.69680       -0.54561       -0.67043
H          2.09615       -0.75630        0.39829
H          0.49341       -0.94567        1.95195
H         -1.52395        2.70893       -0.57502
H          0.21489        2.53983       -0.28707
H         -0.80959        1.12221       -0.69084
H         -2.60027        4.03742        0.57505
H         -2.54222        4.73754        2.18264
