68

C          1.08174        0.48222       -0.45111
C          0.75078       -0.99987       -0.50359
C          1.27953       -1.76261        0.71043
C          0.58483       -1.42224        2.03280
C         -0.90459       -1.78639        2.08393
C         -1.19094       -3.27908        1.91414
O         -0.70405       -3.96031        3.07438
C          0.50036       -4.57033        3.03556
O          1.12810       -4.83435        2.01925
C          0.99067       -4.90076        4.42838
C          0.41743       -4.03218        5.55986
C         -1.09507       -4.14031        5.82006
C         -1.64504       -5.56694        5.79466
C         -1.10460       -6.41904        6.93972
C         -1.65457       -5.98500        8.29895
C         -3.16707       -6.20319        8.47726
C         -3.74031       -7.53644        7.97021
C         -3.25002       -8.77572        8.68672
O         -3.87773       -9.82500        8.72569
O         -2.04558       -8.56332        9.25990
C         -1.55869       -9.47905       10.24564
C         -1.84505       -8.88773       11.62668
C         -3.33447       -8.83213       11.99018
C         -4.02916      -10.19654       12.04392
C         -3.50042      -11.14036       13.12318
C         -3.83138      -10.66446       14.52776
H          0.57687        0.97801        0.38282
H          0.76128        0.97201       -1.37530
H          2.16032        0.63503       -0.34200
H         -0.33053       -1.13589       -0.61010
H          1.20555       -1.42723       -1.40495
H          1.19104       -2.83282        0.50382
H          2.35365       -1.56988        0.81995
H          1.11398       -1.93086        2.84725
H          0.69248       -0.35248        2.24438
H         -1.28266       -1.46854        3.06529
H         -1.46090       -1.21601        1.33410
H         -2.27558       -3.43277        1.89799
H         -0.79340       -3.69641        0.98543
H          0.82014       -5.96528        4.61299
H          2.07668       -4.74348        4.42020
H          0.94578       -4.29568        6.48498
H          0.65578       -2.97878        5.36727
H         -1.31697       -3.65792        6.77806
H         -1.65228       -3.53935        5.09489
H         -2.73924       -5.52763        5.83142
H         -1.41035       -6.05233        4.84103
H         -1.33929       -7.47190        6.74864
H         -0.01040       -6.37254        6.96682
H         -1.09735       -6.50703        9.08285
H         -1.43267       -4.92883        8.48589
H         -3.40541       -6.08514        9.54159
H         -3.69542       -5.39272        7.95917
H         -4.82632       -7.49911        8.12322
H         -3.56978       -7.66534        6.89752
H         -1.95623      -10.48848       10.11260
H         -0.47405       -9.53866       10.10306
H         -1.28874       -9.44216       12.38838
H         -1.46698       -7.85642       11.64931
H         -3.44212       -8.32223       12.95411
H         -3.86361       -8.19805       11.26909
H         -5.10329      -10.03628       12.19708
H         -3.94068      -10.70180       11.07813
H         -3.95519      -12.12648       12.97269
H         -2.41911      -11.28145       13.02348
H         -4.90995      -10.51606       14.64280
H         -3.51092      -11.40905       15.26234
H         -3.32651       -9.72327       14.76318
