64

C          1.37779        0.22770        0.07056
C          0.32697        0.53415        1.10337
O         -0.80112        0.87712        0.74301
N          0.66495        0.38060        2.43430
C         -0.41009        0.39856        3.43598
C         -0.61305       -1.01683        4.00539
N          0.65734       -1.48583        4.58225
C          0.78018       -1.52566        5.95601
C         -0.08258       -2.33464        6.70169
C          0.15810       -2.59154        8.05278
C          1.27378       -2.04602        8.68482
O          1.62472       -2.67183        9.84500
C          2.93554       -2.56593       10.40853
C          4.17721       -3.24739        9.74737
C          4.61795       -2.62006        8.46423
O          4.08939       -3.44445        7.42997
C          3.92263       -4.76173        7.99469
C          2.42440       -5.19871        7.89476
N          1.75896       -5.33832        6.62023
C          2.18211       -5.00384        5.36852
C          1.15641       -5.37817        4.53054
N          0.12068       -5.92790        5.23786
C          0.50081       -5.87225        6.49237
C          4.87015       -5.77064        7.26543
C          4.37859       -7.05633        6.91280
C          5.00827       -7.87785        5.96744
C          6.19077       -7.47006        5.38162
Cl         6.93122       -8.42177        4.15900
C          6.78115       -6.29051        5.79662
C          6.14957       -5.46409        6.74582
Cl         7.12965       -4.12465        7.20330
O          4.14055       -4.65697        9.43259
C          1.96540       -1.03832        8.03682
C          1.76237       -0.82694        6.66264
C          1.82257       -1.45238        3.68328
C          1.95555       -0.09497        2.96117
H          1.01444        0.54306       -0.91303
H          1.55503       -0.85103        0.04339
H          2.30387        0.76948        0.27092
H         -0.10564        1.08980        4.23089
H         -1.34942        0.76434        3.01267
H         -0.90124       -1.70441        3.19997
H         -1.42977       -1.00985        4.73502
H         -0.87696       -2.88423        6.20007
H         -0.45878       -3.32312        8.56799
H          3.15371       -1.50964       10.60999
H          2.82989       -3.03593       11.39470
H          4.97991       -3.12805       10.48676
H          5.70353       -2.61764        8.43850
H          4.37165       -1.57239        8.32793
H          2.28827       -6.14992        8.42876
H          1.80548       -4.52343        8.46927
H          3.13221       -4.53160        5.16635
H          1.10689       -5.27462        3.45504
H         -0.08816       -6.19147        7.34295
H          3.44094       -7.44285        7.30392
H          4.54089       -8.81398        5.67121
H          7.73880       -5.99598        5.37108
H          2.72147       -0.45359        8.54489
H          2.40623       -0.12195        6.14501
H          1.67778       -2.23449        2.92643
H          2.75661       -1.70048        4.20214
H          2.70904       -0.17382        2.17452
H          2.30222        0.66491        3.67091
