27

C          0.90997       -0.15333        0.01872
C          0.41615        1.22353        0.44392
C          0.86300        2.36153       -0.49521
C          0.32654        2.15910       -1.91855
C          0.40213        3.74694        0.01936
C          0.97562        4.17641        1.38608
C          2.51059        4.20786        1.47885
C          3.19820        5.09796        0.44975
N          0.42073        5.49938        1.86403
O          0.00911        6.22834        0.95571
H          0.45182       -0.47566       -0.92051
H          0.65043       -0.89526        0.78108
H          1.99777       -0.15971       -0.10228
H         -0.67813        1.20496        0.51601
H          0.79690        1.40574        1.45431
H          1.95751        2.35419       -0.55927
H         -0.76602        2.08332       -1.92376
H          0.61080        2.99718       -2.56429
H          0.73536        1.25260       -2.37482
H          0.65840        4.50027       -0.73750
H         -0.69565        3.75024        0.07882
H          0.60820        3.47935        2.14854
H          2.81091        4.54388        2.48013
H          2.90256        3.18929        1.37481
H          2.88043        6.14061        0.54467
H          4.28280        5.06693        0.59698
H          2.99516        4.76508       -0.57206
