35

O          0.60443        0.37578       -0.12679
C          0.39418        0.48389        1.29922
C          1.16508       -0.69252        1.98288
N          2.61567       -0.73072        2.00313
C          3.55849        0.11912        1.51864
N          4.75519       -0.39324        1.69307
C          4.49653       -1.57940        2.31019
N          3.20613       -1.82627        2.53321
C          0.88514        1.88041        1.75253
C          0.90881        2.96008        0.83760
C          1.32581        4.23537        1.22331
C          1.76103        4.44437        2.52186
F          2.17668        5.66251        2.89125
C          1.76524        3.40646        3.44447
C          1.30842        2.13630        3.07157
C         -1.14856        0.34428        1.42417
C         -2.00803        1.42843        1.13191
C         -3.40365        1.29837        1.13403
C         -3.99144        0.07304        1.41520
C         -3.17973       -1.01399        1.70801
C         -1.78865       -0.87426        1.71363
F         -1.08927       -1.97880        2.00171
H          1.55345        0.27794       -0.30426
H          0.85401       -0.79261        3.03119
H          0.91752       -1.62133        1.45387
H          3.35898        1.07454        1.05546
H          5.26533       -2.28348        2.60277
H          0.56594        2.81949       -0.18793
H          1.30890        5.06220        0.51985
H          2.12137        3.59451        4.45332
H          1.30925        1.35740        3.83138
H         -1.61454        2.40602        0.87048
H         -4.02648        2.15773        0.89524
H         -5.07220       -0.03665        1.39669
H         -3.61636       -1.98561        1.92044
