39

C          1.06530        0.06424       -0.12631
C          0.43048        0.16691        1.25500
C          1.05828        1.25151        2.12619
O         -1.01018        0.26603        1.15688
C         -1.59156        1.40008        0.66221
O         -0.95305        2.41222        0.38325
C         -3.13581        1.27514        0.57067
S         -3.48411        1.18629       -1.19825
O         -3.11769        2.43936       -1.83684
O         -2.92661       -0.05609       -1.70799
C         -5.25161        1.05879       -1.49917
C         -5.80904       -0.16372       -1.89243
C         -7.16574       -0.22988       -2.22647
C         -7.95321        0.92965       -2.16494
N         -9.37438        0.86665       -2.52930
O         -9.78912       -0.17775       -3.05054
O        -10.07366        1.86045       -2.28698
C         -7.39212        2.15517       -1.77940
C         -6.03298        2.22114       -1.46415
C         -3.84875        0.19357        1.43390
C         -4.88544        1.24205        1.86135
C         -3.93321        2.34160        1.37068
H          0.92684        0.98116       -0.70706
H          0.59919       -0.74586       -0.69760
H          2.13879       -0.13495       -0.05096
H          0.60325       -0.78789        1.76603
H          1.09165        2.22122        1.62076
H          0.48871        1.38502        3.05137
H          2.08995        0.98910        2.38266
H         -5.19564       -1.05962       -1.97532
H         -7.58729       -1.18060       -2.54953
H         -7.98959        3.06487       -1.74642
H         -5.59058        3.18517       -1.21946
H         -4.25624       -0.67066        0.90184
H         -3.25748       -0.17928        2.27882
H         -5.10897        1.26599        2.93194
H         -5.83107        1.18414        1.31487
H         -3.35664        2.80048        2.18389
H         -4.39690        3.14879        0.79993
