22

Br        -3.23673       -0.08548        0.33309
C         -1.35771       -0.02718        0.13648
C         -0.72087        1.19559       -0.04715
C          0.66305        1.23238       -0.21445
C          1.40652        0.04548       -0.19681
Br         3.27941        0.19438       -0.50208
C          0.77758       -1.19857        0.01189
C          1.50929       -2.47820        0.05074
C          1.44086       -3.33158       -1.06733
C          2.11534       -4.55901       -1.09101
Br         1.92170       -5.62255       -2.65235
C          2.88153       -4.95030        0.00898
Br         3.84594       -6.58500        0.07284
C          2.95445       -4.12243        1.13232
C          2.26591       -2.90389        1.15830
Br         2.37659       -1.88289        2.76099
C         -0.62188       -1.21306        0.17039
H         -1.28951        2.12208       -0.06857
H          1.15414        2.19099       -0.36504
H          0.85104       -3.02802       -1.93199
H          3.54442       -4.42844        1.99376
H         -1.13774       -2.15974        0.32137
