95

C          0.84716        0.21677        0.02644
C          0.20184        0.56817        1.33255
C         -0.66573        1.55999        1.63094
C         -1.15361        1.75051        3.03655
C         -1.19462        2.50222        0.60023
O         -1.26760        2.24688       -0.59214
O         -1.49318        3.71853        1.16105
C         -1.52484        4.84531        0.22836
C         -0.00651        5.14197        0.08004
C          0.33274        6.38972       -0.69971
O          1.73605        6.43000       -1.02064
C          2.56642        7.40365       -0.60870
C          2.89494        7.35014        0.84556
O          3.10686        8.16969       -1.39727
C         -0.39376        7.60790       -0.13836
C         -0.08455        8.01690        1.31078
O          0.34419        9.11306        1.64438
O         -0.38012        7.03264        2.19793
C         -0.18889        7.37526        3.57487
C         -0.25846        8.84302       -1.05755
O         -1.55559        9.47275       -1.14868
C         -2.42318        8.76958       -0.25428
C         -1.88471        7.28952       -0.29084
C         -2.51391        6.05979        0.62787
C         -3.82729        4.89854        0.59021
O         -5.06514        5.28506        1.26636
C         -4.64486        6.38623        1.96391
O         -3.78742        5.88480        3.02135
C         -5.39595        7.62002        2.65684
O         -6.58708        7.88568        2.60625
O         -4.45010        8.35625        3.33767
C         -4.79099        9.66930        3.78102
C         -3.78554        6.90995        0.82340
C         -4.49755        7.43524       -0.66474
C         -6.03679        7.48718       -0.69173
C         -4.07368        6.81323       -2.13139
O         -3.29050        5.63992       -2.16562
C         -4.51187        5.49045       -2.90313
C         -4.91396        4.05281       -2.70306
C         -4.45541        5.88644       -4.38407
C         -3.25706        6.84798       -4.44949
C         -3.63115        7.78449       -3.28793
O         -4.70528        8.65268       -3.64052
C         -5.57045        8.19444       -4.68092
O         -5.15610        8.62613       -6.00738
C         -5.66283        7.62744       -6.82461
C         -6.04884        6.51285       -6.21214
C         -5.75643        6.64877       -4.76231
O         -6.88001        6.17562       -4.02802
C         -3.92243        8.90021       -0.62297
O         -4.58281        9.64988        0.41557
H          0.72963        0.97325       -0.75018
H          0.44824       -0.73338       -0.34295
H          1.92450        0.08577        0.18044
H          0.52165       -0.08729        2.14301
H         -0.77037        2.68722        3.45352
H         -2.24725        1.76674        3.06503
H         -0.82191        0.94039        3.69615
H         -1.84264        4.48396       -0.75715
H          0.46553        4.29348       -0.43626
H          0.48841        5.13266        1.05673
H         -0.09106        6.21161       -1.70018
H          3.94309        7.07190        0.96330
H          2.71499        8.33091        1.28774
H          2.28855        6.60388        1.36196
H          0.78904        7.83985        3.73848
H         -0.99353        8.03881        3.90465
H         -0.23008        6.45429        4.16329
H          0.46525        9.58710       -0.71420
H          0.01161        8.56403       -2.08118
H         -2.25850        9.24272        0.72541
H         -1.93881        6.98132       -1.32661
H         -4.10914        4.63149       -0.40229
H         -3.58851        3.97251        1.11674
H         -4.39557        5.63779        3.73927
H         -4.62599       10.37746        2.96429
H         -5.81425        9.73478        4.15407
H         -4.10082        9.93316        4.58945
H         -3.42255        7.78612        1.36245
H         -6.37710        8.19747       -1.45771
H         -6.46627        6.51539       -0.95312
H         -6.48371        7.81273        0.24330
H         -4.59112        3.57034       -1.78321
H         -5.98685        3.90286       -2.81908
H         -4.41391        3.44872       -3.47698
H         -4.28229        5.01848       -5.03035
H         -3.13461        7.35008       -5.41079
H         -2.31876        6.31641       -4.24146
H         -2.76064        8.38288       -3.01860
H         -6.52854        8.69623       -4.49768
H         -5.64368        7.83755       -7.88161
H         -6.44173        5.62258       -6.67894
H         -7.54554        6.88421       -3.99254
H         -4.06308        9.48998       -1.52704
H         -5.47048        9.89031        0.09268
