19

N          1.00808        0.18000       -0.65086
C          0.43119       -0.93143       -1.43840
C          0.97508       -2.33219       -1.11082
O          0.60687       -2.83325        0.17518
P          1.18354       -1.88191        1.50006
O          0.53968       -2.82023        2.51668
O          2.67940       -2.49701        1.31209
O          1.76020       -0.93057        2.82494
C         -1.08992       -0.94859       -1.31739
O         -1.88105       -1.31441       -2.17094
O         -1.52065       -0.57042       -0.08922
H          0.43741        0.39273        0.16858
H          1.98292        0.03501       -0.39974
H          0.66557       -0.70416       -2.48465
H          0.59003       -3.04961       -1.84395
H          2.06719       -2.34737       -1.19832
H          2.68596       -3.36459        1.76410
H          2.01292       -1.57602        3.51096
H         -2.49499       -0.68155       -0.14324
