22

Cl        -2.42476       -0.15303       -0.95390
C         -0.76008       -0.11378       -0.55206
C          0.30345       -1.51820       -0.86147
C          2.08744       -1.41992       -0.56396
C          2.88705        0.08093        0.05817
C          1.92804        1.55667        0.40928
C          0.07608        1.44678        0.06084
C         -0.54147        2.60685       -0.03547
C         -0.70990        2.01303        1.53228
Cl        -1.63115        2.93704        2.65644
C         -0.01304        0.60084        1.95967
Cl        -0.12987       -0.09385        3.51536
C          0.87006       -0.17800        0.71294
C          1.11393        0.51244       -1.16029
Cl         1.91953        0.06568       -2.73501
C          0.28483        2.03176       -1.39076
Cl         0.27361        2.92465       -2.85841
H         -0.12160       -2.43482       -1.26539
H          2.70559       -2.29039       -0.78799
H          3.96844        0.09513        0.18544
H          2.39697        2.49711        0.68895
H          1.25370       -1.10252        1.19988
