22

Cl        -2.70506        0.80029        0.07121
C         -1.20433       -0.04082        0.02951
C         -0.01431        0.67597       -0.03501
C          1.19087       -0.01694       -0.07504
Cl         2.67253        0.85449       -0.15664
C          1.21233       -1.41328       -0.05275
C          0.01630       -2.14594        0.02188
C          0.02620       -3.61914        0.03951
C         -0.52937       -4.31700       -1.05091
C         -0.54477       -5.71640       -1.08868
Cl        -1.25320       -6.47405       -2.46963
C          0.00106       -6.44618       -0.03031
Cl         0.01998       -8.17304       -0.00748
C          0.55406       -5.77581        1.06171
C          0.56384       -4.37687        1.09889
Cl         1.23329       -3.63155        2.51045
C         -1.19597       -1.43728        0.05804
H         -0.02581        1.76211       -0.05439
H          2.16870       -1.93208       -0.09013
H         -0.95135       -3.75995       -1.88724
H          0.97395       -6.34307        1.88968
H         -2.14085       -1.97486        0.11543
