20

O          1.07383        0.24177        0.22370
C          2.28918        0.13192        0.25111
O          2.95439       -0.33699        1.32282
C          3.12165        0.63764       -0.86344
C          2.72857        1.85379       -1.42967
C          3.47844        2.36187       -2.46895
N          4.56976        1.74264       -2.96100
C          4.93028        0.53821       -2.42570
C          6.18832       -0.02423       -3.01402
O          7.01858        0.59793       -3.65348
O          6.35584       -1.34325       -2.81479
C          4.21678       -0.05079       -1.39223
C          4.61625       -1.30724       -0.78928
O          5.17608       -1.37205        0.29000
O          4.09080       -2.34851       -1.44270
H          3.93315       -0.42912        1.28067
H          1.85775        2.39212       -1.06387
H          3.22207        3.30636       -2.94309
H          7.18184       -1.54970       -3.30523
H          4.34388       -3.15230       -0.94009
