40

C          2.37136       -1.19403       -0.33217
C          0.89601       -0.94462       -0.21650
C          0.00161       -2.00836       -0.14782
C         -1.36211       -1.75876        0.00244
C         -1.84188       -0.44938        0.18174
C         -3.32422       -0.23326        0.27338
C         -0.93043        0.61048        0.24896
O         -1.35538        1.77651        0.83245
C         -0.97267        3.03011        0.26698
C          0.10685        3.79895        1.05601
C          1.55458        3.28469        1.11183
C          2.55479        3.51514       -0.07449
C          3.00264        4.98707       -0.09189
C          3.78900        2.62447        0.21646
C          2.04420        3.24495       -1.49506
O          0.91703        3.39561       -1.92002
O          3.01305        2.95019       -2.38581
C          0.40616        0.35748       -0.05134
H          2.78387       -1.44221        0.65209
H          2.57543       -2.01750       -1.02254
H          2.89667       -0.31350       -0.71430
H          0.35848       -3.03246       -0.21834
H         -2.05459       -2.59702        0.00764
H         -3.81083       -0.70361       -0.59006
H         -3.72180       -0.67143        1.19177
H         -3.59152        0.82739        0.24126
H         -0.82728        2.95434       -0.80509
H         -1.87660        3.64987        0.36087
H          0.11340        4.84652        0.73604
H         -0.23786        3.80563        2.10141
H          2.00958        3.78716        1.98058
H          1.54556        2.24171        1.43905
H          3.48141        5.27024        0.85119
H          3.72303        5.17278       -0.89754
H          2.15231        5.65712       -0.25771
H          3.48726        1.59184        0.42097
H          4.49880        2.58444       -0.61612
H          4.33941        2.98268        1.09242
H          2.53136        2.91296       -3.24025
H          1.11090        1.16181       -0.11581
