21

C          3.04120        0.42144        0.00218
C          1.58497        0.06419       -0.00015
C          1.16962       -1.26740        0.00047
C         -0.19082       -1.58077       -0.00031
C         -1.16736       -0.57178       -0.00141
C         -2.61828       -0.96615       -0.00135
C         -0.75864        0.77517       -0.00137
C         -1.72402        1.92915       -0.00504
C          0.61625        1.07509       -0.00123
H          3.28589        1.01356       -0.88551
H          3.28620        0.99888        0.89940
H          3.67441       -0.47184       -0.00563
H          1.89905       -2.07370        0.00152
H         -0.48490       -2.62832        0.00001
H         -3.11593       -0.58320        0.89531
H         -3.11764       -0.57856       -0.89504
H         -2.74064       -2.05462       -0.00405
H         -1.55723        2.55709        0.87661
H         -1.57773        2.53364       -0.90644
H         -2.76975        1.61304        0.01237
H          0.93509        2.11649       -0.00184
