13

N          1.07803        0.05352        0.05980
C          0.30285       -0.79206       -0.53067
N          0.84841       -1.81207       -1.28895
N          0.00064       -2.62524       -2.07914
N         -1.05732       -0.81825       -0.52383
N         -1.80640        0.09993        0.08704
O         -2.92026        0.22934       -0.42242
O         -1.40609        0.64008        1.12166
H          2.05960       -0.17518       -0.09432
H          1.83934       -1.74284       -1.51935
H          0.55002       -3.12123       -2.78975
H         -0.38419       -3.37621       -1.49299
H         -1.42940       -1.29554       -1.32969
