42

C          1.07192        0.25369       -0.07665
C          0.68700       -0.49041       -1.34568
C          1.14043       -1.95269       -1.35540
C          0.53104       -2.84722       -0.26693
C         -1.00645       -2.94073       -0.27695
C         -1.63587       -3.40835       -1.60042
C         -1.17708       -4.76996       -2.10333
C         -1.52828       -3.76765        0.89139
O         -2.43755       -3.38754        1.62134
O         -0.87962       -4.96969        0.97058
O         -1.46423       -5.70846        2.08871
C         -1.00980       -7.06914        2.00347
C         -1.58745       -7.73763        0.74803
C          0.52403       -7.12465        1.98121
C         -1.57324       -7.80512        3.24181
C         -1.14588       -7.21484        4.58082
H          0.57122       -0.16277        0.80202
H          0.78222        1.30652       -0.15616
H          2.15334        0.21307        0.08804
H         -0.39516       -0.42063       -1.49816
H          1.15025        0.01949       -2.19925
H          0.92125       -2.37955       -2.34112
H          2.23267       -1.98285       -1.25300
H          0.97124       -3.84682       -0.36865
H          0.85956       -2.49300        0.71858
H         -1.38780       -1.92823       -0.08513
H         -2.72731       -3.43736       -1.48932
H         -1.42974       -2.66560       -2.37948
H         -1.56130       -5.56900       -1.46660
H         -1.56738       -4.94797       -3.11049
H         -0.08807       -4.85089       -2.15004
H         -1.14863       -7.32077       -0.16272
H         -1.39225       -8.81540        0.74118
H         -2.66926       -7.57657        0.68047
H          0.95582       -6.51285        2.78003
H          0.88927       -8.15171        2.08136
H          0.92255       -6.72213        1.04258
H         -2.67031       -7.77344        3.20800
H         -1.28308       -8.86284        3.21376
H         -1.44282       -6.16544        4.66853
H         -1.62184       -7.76635        5.39826
H         -0.06385       -7.28413        4.72352
