15

O          1.14166        0.65758       -0.01518
C          2.19083        0.03015       -0.09201
C          2.95290       -0.06418       -1.35277
C          2.54458        0.66376       -2.47533
C          3.26996        0.57484       -3.66517
C          4.39639       -0.24621       -3.72728
O          5.10616       -0.33522       -4.89163
C          4.80028       -0.97687       -2.60442
Br         6.31964       -2.11124       -2.65527
C          4.08107       -0.88573       -1.41046
H          2.61213       -0.49442        0.78182
H          1.66399        1.30214       -2.42358
H          2.94179        1.14922       -4.52672
H          4.69784        0.23246       -5.56553
H          4.39647       -1.45496       -0.54028
