21

C          0.58725       -0.01423        0.06757
N          0.87287       -0.77511        1.27700
C         -0.12971       -0.57904        2.34129
C         -1.51741       -1.17461        2.15822
C         -2.64723       -0.34030        2.12332
C         -3.93664       -0.88171        2.11138
C         -4.11625       -2.26280        2.12391
C         -3.00728       -3.10377        2.13840
C         -1.71867       -2.56409        2.16010
N          1.30659       -1.99045        1.04070
O          1.72299       -2.53605        2.06959
H          0.32475        1.02334        0.30490
H         -0.22236       -0.44990       -0.52813
H          1.48319        0.04404       -0.56557
H          0.26014       -0.94409        3.30190
H         -0.23321        0.50303        2.50491
H         -2.53719        0.74167        2.14309
H         -4.80315       -0.22504        2.11443
H         -5.11822       -2.68404        2.13496
H         -3.14221       -4.18242        2.15648
H         -0.87265       -3.24572        2.21250
