82

C          0.96743       -0.51216        0.68101
C          0.26836        0.39692        1.73149
C         -1.00884        0.92979        1.00384
O         -1.27814        2.32171        1.09942
C         -0.90383        3.04143        0.01936
O         -0.04804        2.72611       -0.79816
C         -1.77193        4.22129       -0.14663
C         -1.86898        5.25864        0.94453
C         -1.18593        5.59186       -0.35149
C          1.36553        1.42308        2.21588
O          2.72831        0.91654        2.63234
C          3.06025       -0.03987        3.54644
O          2.37190       -0.92813        4.01437
C          4.41742        0.06416        4.12467
C          5.34197       -1.09299        3.77910
C          5.70702        0.31497        3.41429
C          0.88012        2.32121        3.34515
C          0.49871        1.50552        4.57398
C         -0.52119        0.34513        4.28684
C         -1.89494        1.07522        4.18880
C         -0.20783       -0.41608        2.96693
C         -1.22151       -1.55268        2.76832
C         -0.79866       -2.70706        3.67017
O          0.38830       -3.27031        3.05694
C         -0.59724       -2.32016        5.18969
C          0.61957       -3.19022        5.68223
O         -1.73119       -2.87951        5.94307
C         -1.65394       -2.55958        7.29214
C         -1.46336       -3.64081        8.21335
C         -1.00092       -3.33624        9.43570
C         -0.48739       -4.34230       10.35190
C          0.87949       -4.62816       10.42499
C          1.32166       -5.63204       11.28206
C          0.37810       -6.30818       12.03943
N         -0.94654       -6.04341       12.00716
C         -1.34750       -5.06279       11.16760
O         -0.92286       -2.01721        9.92167
C         -1.33612       -0.99214        9.12179
O         -1.53284        0.14141        9.55024
C         -1.49140       -1.29973        7.69535
C         -1.40988       -0.26200        6.65285
O         -0.93232        0.98204        7.15311
C         -0.46609       -0.72660        5.50131
H          1.18719        0.06613       -0.22688
H          0.34309       -1.35635        0.37567
H          1.91672       -0.91636        1.04062
H         -1.04834        0.61044       -0.04720
H         -1.90688        0.45393        1.41530
H         -2.68284        4.00025       -0.69464
H         -2.84560        5.68606        1.14028
H         -1.25472        5.13230        1.82904
H         -0.10577        5.68213       -0.36089
H         -1.69466        6.24989       -1.04629
H          1.60908        2.06504        1.36038
H          4.38526        0.32717        5.18048
H          5.83221       -1.59226        4.60679
H          5.04233       -1.76452        2.97964
H          5.66437        0.61744        2.37778
H          6.50752        0.77114        3.98793
H          1.67622        3.02417        3.62272
H          0.03540        2.93760        3.02704
H          1.40870        1.12819        5.04737
H          0.09499        2.21069        5.31083
H         -1.94180        1.75309        3.33814
H         -2.74127        0.39080        4.11672
H         -2.07736        1.72377        5.05360
H          0.68409       -0.95854        3.15070
H         -1.22875       -1.89437        1.72907
H         -2.24561       -1.25896        3.00468
H         -1.54875       -3.50045        3.59033
H          1.16980       -2.74204        3.31933
H          0.54498       -4.20108        5.24913
H          1.58975       -2.77706        5.41051
H          0.64515       -3.38140        6.75551
H         -1.49877       -4.65937        7.84122
H          1.59982       -4.08178        9.81988
H          2.37364       -5.88564       11.35493
H          0.67040       -7.10771       12.71365
H         -2.41557       -4.86424       11.16550
H         -2.43063       -0.10524        6.28938
H         -1.42017        1.18933        7.97724
H          0.55763       -0.63850        5.89812
