49

C          2.82994       -0.47768       -0.74181
N          1.40436       -0.46917       -1.07854
C          0.82302        0.84954       -0.77486
C         -0.72126        0.92151       -0.77723
N         -1.41997       -0.18258       -0.12558
C         -1.86142        0.02395        1.25005
C         -0.83720        0.06816        2.38596
C         -0.24016        1.42515        2.77895
N         -1.07654        2.64360        2.98318
C         -2.36583        2.56711        3.57342
C         -2.81610        1.43456        4.27802
C         -4.14978        1.27239        4.68309
C         -5.06131        2.28947        4.48674
C         -4.62135        3.48320        3.93093
C         -3.28931        3.62779        3.48772
S         -2.89788        5.23091        2.83505
C         -1.15712        5.09458        2.52856
C         -0.52852        6.29934        2.14094
C          0.81164        6.32453        1.77409
C          1.53729        5.15185        1.83573
Cl         3.18984        5.14306        1.35012
C          0.93779        3.96375        2.27528
C         -0.44048        3.88205        2.59992
C         -0.83030       -1.48091       -0.45576
C          0.70918       -1.55820       -0.37361
H          3.36095        0.31437       -1.28049
H          2.99703       -0.32707        0.33271
H          3.29099       -1.42879       -1.02727
H          1.19411        1.19380        0.19102
H          1.19018        1.56993       -1.51662
H         -1.04879        0.92595       -1.82538
H         -1.04687        1.88650       -0.36968
H         -2.50752        0.90706        1.28408
H         -2.54332       -0.80685        1.48199
H         -1.25643       -0.44156        3.25561
H          0.00704       -0.58341        2.14394
H          0.39256        1.29004        3.66570
H          0.43459        1.61082        1.94960
H         -2.13749        0.64407        4.55983
H         -4.46195        0.34467        5.15819
H         -6.09854        2.17640        4.79136
H         -5.32478        4.30635        3.83446
H         -1.09568        7.22740        2.10339
H          1.26989        7.25278        1.44312
H          1.59834        3.10863        2.35498
H         -1.11989       -1.71342       -1.48977
H         -1.27184       -2.28050        0.15194
H          1.02156       -2.51316       -0.81516
H          1.01465       -1.59459        0.67674
