29

C          1.25050       -0.23394       -0.13014
C          0.92246       -0.35761        1.34867
C          1.09992        0.95077        2.12637
C          0.21904        2.15070        1.71025
N         -1.20680        1.89492        1.94677
C         -1.94759        3.05530        2.47461
C         -2.64737        4.01817        1.49298
C         -3.93449        3.51736        0.81966
C         -4.96817        2.94278        1.77941
N         -1.79288        1.21404        0.99313
O         -2.69361        0.50920        1.44833
H          0.61287        0.49934       -0.63105
H          1.10220       -1.19754       -0.62827
H          2.29421        0.06277       -0.27194
H         -0.09116       -0.75137        1.47351
H          1.58631       -1.11265        1.78760
H          0.91916        0.73947        3.18925
H          2.15152        1.25659        2.05638
H          0.56432        2.98825        2.33138
H          0.42182        2.45510        0.67517
H         -2.68108        2.68660        3.20126
H         -1.27126        3.66349        3.09162
H         -2.90800        4.92449        2.05661
H         -1.93990        4.34175        0.71947
H         -4.39341        4.36202        0.29047
H         -3.70256        2.77718        0.04781
H         -5.25101        3.67654        2.54003
H         -5.87077        2.65442        1.23101
H         -4.60400        2.04658        2.28832
