32

C          1.07221       -0.08446       -0.32909
C          0.33145        1.02011       -0.16884
C         -1.15896        1.01122        0.04282
C         -1.73234        1.73813        1.29409
C         -1.21297        1.20059        2.68982
C         -1.55171       -0.29371        2.88767
C          0.28653        1.37095        3.04335
C          0.81883        2.79251        3.08748
C         -3.25903        1.52481        1.27265
O         -3.83063        0.64362        0.63617
N         -3.98522        2.38028        2.05872
C         -3.62784        3.67836        2.25465
O         -4.46411        4.54022        2.50432
N         -2.32583        3.99887        2.02830
C         -1.55442        3.25572        1.17503
O         -0.81209        3.81902        0.37654
H          0.63576       -1.07799       -0.29813
H          2.14146       -0.01296       -0.50473
H          0.82264        1.98955       -0.23896
H         -1.60092        1.46670       -0.85577
H         -1.50900       -0.02965        0.03152
H         -1.75992        1.73487        3.47991
H         -1.03204       -0.92493        2.16069
H         -1.25181       -0.62836        3.88728
H         -2.62543       -0.48400        2.80578
H          0.43738        0.95497        4.04955
H          0.91978        0.76326        2.39208
H          0.15474        3.45128        3.65438
H          1.79763        2.80486        3.57954
H          0.96733        3.20107        2.08655
H         -4.98543        2.22706        2.04505
H         -2.17944        4.99813        1.95505
