14

O          1.08112       -0.03284       -0.01565
C          2.31025       -0.04688       -0.00669
O          2.98125        0.94613       -0.64014
C          3.10332       -1.15335        0.69913
F          2.76309       -1.20621        2.02239
F          2.76309       -2.37558        0.18924
C          4.58886       -0.96111        0.57650
F          4.94355       -0.90204       -0.74268
F          4.94355        0.26003        1.07903
C          5.33063       -2.07306        1.28581
F          5.05442       -2.11881        2.60816
F          5.05442       -3.29146        0.76987
F          6.67266       -1.89854        1.17449
H          3.96034        0.95690       -0.64701
