25

C          0.95466       -0.12417        0.17465
C          0.58322        1.34517        0.30701
C          1.02867        2.19698       -0.88496
C          0.43251        1.79733       -2.23904
C         -1.09598        1.85741       -2.32527
C         -1.71130        3.24621       -2.11128
C         -1.26191        4.32772       -3.09762
N         -1.62086        4.00381       -4.47332
H          0.41755       -0.60188       -0.64993
H          0.69629       -0.66190        1.09255
H          2.02930       -0.24367        0.00390
H         -0.49701        1.43772        0.46233
H          1.05993        1.74254        1.21135
H          0.79194        3.24649       -0.67487
H          2.12209        2.14536       -0.96333
H          0.86840        2.43844       -3.01408
H          0.75423        0.77968       -2.48988
H         -1.40264        1.47187       -3.30498
H         -1.53136        1.16783       -1.59265
H         -2.80350        3.14858       -2.16637
H         -1.49365        3.58940       -1.09298
H         -1.74775        5.27195       -2.82801
H         -0.18246        4.49509       -3.02688
H         -1.30581        4.75253       -5.08950
H         -1.12494        3.16623       -4.77308
