40

C          0.23014        0.36140       -0.22022
C          0.26559       -1.08518       -0.69835
N          0.91436       -1.94765        0.28898
C          0.04433       -2.77012        1.13715
C          0.02088       -4.22965        0.70700
C          2.30356       -1.86973        0.37808
O          2.97127       -1.23792       -0.44643
C          3.01205       -2.58224        1.52260
O          2.52558       -2.12198        2.78618
C          3.44357       -1.97591        3.76433
O          4.64664       -2.16079        3.69830
C          2.72466       -1.65880        4.99727
C          2.15764       -0.37871        5.11444
C          1.53898        0.01083        6.30605
C          1.47671       -0.87478        7.38128
C          2.02998       -2.14987        7.26604
C          2.65003       -2.54084        6.07304
O          3.24191       -3.85231        6.15037
C          3.55682       -5.01900        5.43304
C          3.10303       -5.05506        4.01385
O          4.14239       -5.95474        5.96779
H         -0.26495        0.44217        0.75312
H         -0.30388        0.99115       -0.93708
H          1.24183        0.76644       -0.10685
H         -0.74966       -1.44700       -0.89344
H          0.81648       -1.14477       -1.64381
H          0.35727       -2.70132        2.17987
H         -0.97351       -2.36474        1.09648
H          0.99375       -4.70842        0.84724
H         -0.70993       -4.78705        1.30214
H         -0.24870       -4.32840       -0.34909
H          2.83945       -3.65731        1.43181
H          4.08750       -2.40482        1.40876
H          2.22355        0.33110        4.29189
H          1.12447        1.01212        6.40487
H          1.01359       -0.56703        8.31638
H          1.99699       -2.83250        8.11219
H          3.86355       -4.60114        3.37886
H          2.99153       -6.09898        3.70289
H          2.12767       -4.58026        3.89666
