36

C          1.14922        0.11287       -0.31993
C          0.87266       -1.38048       -0.23185
C          1.30424       -2.00150        1.09979
C          0.60766       -1.43651        2.34320
C         -0.91779       -1.58693        2.36047
C         -1.42741       -3.03312        2.36485
C         -1.01174       -3.86526        3.58423
C         -1.49682       -3.32610        4.93515
C         -3.01941       -3.27096        5.10379
C         -3.73435       -4.62557        5.02013
C         -3.29731       -5.64468        6.06837
O         -3.57327       -5.17794        7.38096
H          0.55293        0.67626        0.40372
H          0.89522        0.48476       -1.31764
H          2.20731        0.32666       -0.13825
H         -0.19052       -1.56811       -0.41630
H          1.41819       -1.88246       -1.04008
H          1.14590       -3.08505        1.05008
H          2.38621       -1.86162        1.21824
H          1.03518       -1.91713        3.23076
H          0.85359       -0.37288        2.44349
H         -1.30994       -1.05840        3.23690
H         -1.34639       -1.06806        1.49538
H         -2.52102       -3.01704        2.29124
H         -1.08170       -3.54470        1.45908
H         -1.37560       -4.89024        3.44784
H          0.08096       -3.94659        3.61399
H         -1.06400       -3.94132        5.73234
H         -1.09187       -2.32031        5.09555
H         -3.24478       -2.80350        6.06994
H         -3.44909       -2.60261        4.34848
H         -4.80818       -4.43811        5.14595
H         -3.60528       -5.05635        4.02133
H         -3.85457       -6.57636        5.92780
H         -2.23314       -5.88673        5.99281
H         -2.98007       -4.42861        7.56044
