13

C          1.01219       -0.36404       -0.04916
O          0.37538       -0.21290       -1.31011
C          0.98493        0.77683       -2.14540
C          0.43062        2.17640       -1.88376
O          0.97382        2.73958       -0.69245
H          0.63972       -1.28444        0.40941
H          0.75750        0.46562        0.61301
H          2.09784       -0.44794       -0.15530
H          2.07574        0.74812       -2.04406
H          0.73708        0.49643       -3.17465
H          0.70870        2.84136       -2.70678
H         -0.66063        2.16388       -1.79576
H          0.38450        2.47358        0.03423
