25

O          2.58824       -0.35388        0.58284
C          1.62048       -0.16504       -0.15468
C          0.93812       -1.31378       -0.86513
C         -0.25396       -1.88902       -0.10015
C         -1.61374       -1.32310       -0.52495
C         -2.28584       -0.40603        0.49653
C         -1.48934        0.78932        1.01553
C         -1.15928        1.87346       -0.01365
C         -0.03407        1.55791       -0.99618
N          1.16601        1.10619       -0.32670
H          0.68763       -1.04208       -1.89485
H          1.70078       -2.09942       -0.95640
H         -0.27736       -2.96480       -0.32138
H         -0.10827       -1.80964        0.98309
H         -1.56740       -0.84214       -1.50558
H         -2.29457       -2.17397       -0.66771
H         -3.23018       -0.04600        0.06888
H         -2.56651       -1.01754        1.36446
H         -2.10689        1.26444        1.79020
H         -0.58769        0.45499        1.53840
H         -2.06229        2.14551       -0.57297
H         -0.86590        2.77117        0.54730
H         -0.34967        0.84289       -1.75391
H          0.23675        2.47580       -1.53019
H          1.69447        1.78596        0.20826
