11

C          1.07817        0.12029       -0.09689
C          0.51319       -1.24816       -0.45484
C          1.05102       -2.37753        0.42349
I          0.18767       -2.37397        2.37895
H          0.76051        0.44407        0.89824
H          0.72900        0.86870       -0.81574
H          2.17248        0.11250       -0.12421
H         -0.58203       -1.21440       -0.42436
H          0.79176       -1.46251       -1.49413
H          0.81253       -3.33613       -0.05156
H          2.14286       -2.32031        0.49360
