57

C          0.24126       -0.04588        2.37104
N          0.42118       -1.45200        2.06201
C         -0.86356       -2.14675        2.12533
C          1.24687       -1.86375        0.90477
C          2.73439       -1.91130        1.31631
O          3.14762       -2.77680        2.10098
C          3.68772       -0.81950        0.85335
C          3.86942        0.22082        1.93890
N          4.07591       -0.26189        3.20259
O          3.85510        1.42695        1.72662
C          3.32403       -0.19605       -0.49782
O          4.18122        0.06245       -1.33853
C          1.85280        0.10583       -0.67938
O          1.56653        1.04742        0.34614
C          1.23614        0.73668       -1.92193
O          1.78469        0.79334       -3.01401
C         -0.24581        1.07824       -1.70233
C         -0.91469        2.03737       -2.65088
O         -0.33216        2.92329       -3.26733
C         -2.39635        2.05304       -2.61394
C         -3.09833        3.25522       -2.75066
O         -2.48083        4.45411       -2.97522
C         -4.48413        3.27372       -2.63334
C         -5.17827        2.08413       -2.42047
C         -4.48469        0.87791       -2.31114
C         -3.08112        0.85068       -2.37522
C         -2.29417       -0.43832       -2.26540
C         -2.00303       -0.97798       -3.67250
O         -3.06684       -1.45378       -1.60213
C         -1.03834       -0.21204       -1.37554
C         -0.12310       -1.45432       -1.33236
O         -0.79218       -2.62880       -0.90043
C          1.17752       -1.27310       -0.52123
H         -0.30944        0.07673        3.31172
H         -0.33694        0.48110        1.60666
H          1.19480        0.45350        2.54941
H         -1.54549       -1.83300        1.33077
H         -0.73079       -3.23228        2.07985
H         -1.36249       -1.94399        3.08072
H          1.04145       -2.93726        0.76488
H          4.66169       -1.30619        0.70424
H          4.12362        0.39564        3.97028
H          3.93171       -1.24370        3.43632
H          2.23020        1.77574        0.30997
H         -0.26547        1.68655       -0.78514
H         -1.54505        4.27667       -3.22135
H         -5.02426        4.21317       -2.71882
H         -6.26398        2.09511       -2.35122
H         -5.05705       -0.04026       -2.18534
H         -1.29585       -0.35157       -4.22438
H         -1.61390       -2.00166       -3.64096
H         -2.92713       -1.03921       -4.26153
H         -3.51511       -1.04255       -0.83932
H         -1.42083       -0.09052       -0.35127
H          0.19134       -1.66503       -2.36397
H         -1.70061       -2.63130       -1.27188
H          1.83977       -1.96357       -1.08129
