30

N          2.40180       -0.33946        0.18630
C          1.02026       -0.13491        0.10237
C          0.17699       -1.15646       -0.34363
C         -1.21613       -0.99996       -0.32547
C         -1.77780        0.16477        0.20868
S         -3.54283        0.29744        0.37638
O         -4.14802       -0.85369       -0.24305
O         -3.82749        0.60208        1.77341
N         -4.10778        1.62928       -0.49521
C         -3.39149        2.83903       -0.39143
N         -2.43586        2.99333       -1.31681
C         -1.69371        4.11451       -1.28094
N         -1.77602        5.12055       -0.40567
C         -2.73093        4.93474        0.52133
N         -3.02640        5.80501        1.53242
C         -4.00025        5.23112        2.20194
N         -4.33684        4.01407        1.66745
C         -3.54447        3.81357        0.56989
C         -0.94214        1.13408        0.76657
C          0.44605        0.99028        0.69663
H          2.76433       -1.00854       -0.48531
H          2.94239        0.52051        0.19913
H          0.59967       -2.09259       -0.70176
H         -1.84353       -1.81345       -0.68344
H         -5.07660        1.75529       -0.20882
H         -0.93523        4.20679       -2.05217
H         -4.49088        5.64376        3.07524
H         -5.03586        3.38460        2.03883
H         -1.34799        2.00164        1.27601
H          1.07664        1.76076        1.13341
