36

C          0.81818       -0.06560       -0.01166
C          0.63373        1.32158        0.57992
O          1.03456        2.35689       -0.32888
C          2.38161        2.51166       -0.50621
O          3.23751        1.82532        0.03800
C          2.68014        3.60509       -1.42783
N          3.49829        3.45757       -2.53156
C          3.50202        4.62872       -3.12568
N          2.77263        5.56581       -2.43351
C          2.19668        4.90441       -1.37215
C          1.24805        5.56949       -0.45984
N          1.98827        6.56347        0.28352
C          1.88235        6.51505        1.73307
C          2.51449        7.70780       -0.30217
O          3.03919        8.60514        0.35603
C          2.40724        7.91343       -1.77784
C          2.21169        9.24728       -2.17555
C          2.16998        9.58005       -3.52174
F          1.95327       10.85122       -3.88095
C          2.35001        8.61394       -4.50077
C          2.57922        7.28821       -4.12941
C          2.59122        6.92769       -2.76813
H          0.36417       -0.13111       -1.00525
H          0.36653       -0.82159        0.63754
H          1.87781       -0.31245       -0.12726
H         -0.43103        1.48325        0.77971
H          1.16037        1.42971        1.53455
H          4.05814        4.86033       -4.02481
H          0.79195        4.85765        0.23440
H          0.43520        6.05872       -1.00853
H          0.85706        6.78209        2.00913
H          2.10586        5.50287        2.08130
H          2.56785        7.21536        2.21739
H          2.09919       10.03793       -1.43658
H          2.30389        8.89971       -5.54770
H          2.69123        6.54968       -4.92081
