16

O          0.92817        0.02161        0.09234
C          2.15443        0.00161        0.05881
N          2.85683       -1.19685        0.05502
C          4.14403       -1.14523        0.05667
N          4.93027       -0.03319        0.06319
C          4.31161        1.21320        0.01532
C          5.02924        2.40626       -0.00779
C          4.34171        3.61966       -0.04316
C          2.95429        3.60077       -0.04689
N          2.22222        2.46971       -0.01521
C          2.91713        1.30072        0.01765
H          4.72772       -2.08124        0.05110
H          5.93652       -0.10074        0.00167
H          6.11529        2.40759        0.00022
H          4.87673        4.56367       -0.06624
H          2.38006        4.52339       -0.07494
