42

O          1.13840        0.24745       -0.30815
N          2.30389       -0.06526       -0.03670
O          2.90449        0.26521        0.99803
C          3.03349       -0.88170       -1.00944
C          4.14908       -1.61904       -0.59998
C          4.83852       -2.39390       -1.53915
C          4.43062       -2.44262       -2.88093
N          5.18902       -3.22969       -3.77184
N          4.49162       -3.72167       -4.68616
C          5.26717       -4.61499       -5.44864
C          5.93191       -4.16477       -6.58936
C          6.71511       -5.04106       -7.35999
C          6.84748       -6.40636       -7.04873
N          7.66027       -7.25906       -7.79395
C          7.91945       -6.98811       -9.23125
C          9.41401       -6.75289       -9.49076
O         10.12153       -7.99405       -9.51720
C          7.94323       -8.65414       -7.36770
C          9.13070       -8.73154       -6.39369
O          8.85545       -8.12706       -5.13429
C          6.14999       -6.83626       -5.90599
C          5.37600       -5.96773       -5.12147
Cl         4.57615       -6.62215       -3.73243
C          3.31368       -1.68389       -3.27009
C          2.60824       -0.91006       -2.34230
H          4.48835       -1.60554        0.43400
H          5.70376       -2.97424       -1.22324
H          5.85819       -3.11824       -6.87540
H          7.24444       -4.60394       -8.20235
H          7.57082       -7.84313       -9.82460
H          7.35248       -6.12935       -9.60210
H          9.55314       -6.28294      -10.46929
H          9.85530       -6.10166       -8.72826
H         10.86875       -7.91087       -8.90053
H          7.05318       -9.13047       -6.94557
H          8.20007       -9.26485       -8.24186
H          9.37898       -9.78009       -6.20368
H         10.01886       -8.24496       -6.80596
H          8.66506       -7.19111       -5.33000
H          6.19883       -7.87061       -5.57926
H          2.98507       -1.69559       -4.30704
H          1.74379       -0.33869       -2.67321
