50

C          1.14306        0.19233       -0.47169
C          0.91946       -1.31229       -0.50161
C          1.41316       -2.02658        0.76014
C          0.80962       -1.51855        2.07268
C         -0.71896       -1.54937        2.12159
C         -1.31490       -2.95903        2.16987
C         -1.08911       -3.68528        3.50166
C         -1.74478       -3.00069        4.70125
O         -3.16598       -3.09788        4.55516
C         -3.86090       -2.04379        4.07427
O         -3.41203       -0.91727        3.90699
C         -5.29607       -2.41668        3.76997
C         -5.58785       -3.91084        3.56742
C         -5.34389       -4.84553        4.76376
C         -5.81155       -4.31283        6.11950
C         -7.33179       -4.23937        6.26827
C         -8.04673       -5.59052        6.18223
C         -7.56382       -6.59567        7.21771
H          0.56064        0.67243        0.32065
H          0.83287        0.63830       -1.42160
H          2.20009        0.42688       -0.31281
H         -0.14381       -1.52028       -0.66565
H          1.44781       -1.73011       -1.36633
H          1.21686       -3.10006        0.65560
H          2.50345       -1.92364        0.82216
H          1.22413       -2.10250        2.90231
H          1.14221       -0.48865        2.24729
H         -1.03868       -0.96917        2.99121
H         -1.13847       -1.01931        1.26031
H         -2.39031       -2.89478        1.96744
H         -0.90503       -3.57011        1.35817
H         -1.51607       -4.69208        3.40074
H         -0.01873       -3.81276        3.68930
H         -1.48751       -3.55427        5.61091
H         -1.40977       -1.97122        4.85417
H         -5.93376       -1.99422        4.55174
H         -5.55176       -1.90893        2.83081
H         -6.63811       -4.00784        3.26523
H         -4.99365       -4.28066        2.72145
H         -5.80877       -5.81420        4.54955
H         -4.27667       -5.08120        4.83689
H         -5.39245       -4.94551        6.90988
H         -5.38805       -3.31949        6.30565
H         -7.56155       -3.77857        7.23690
H         -7.74625       -3.57043        5.50483
H         -9.12033       -5.42417        6.32712
H         -7.93505       -6.01793        5.17992
H         -7.65735       -6.18969        8.22986
H         -8.15897       -7.51187        7.16025
H         -6.51874       -6.87538        7.05311
