49

C          0.29054        0.80077       -0.64986
C         -0.29368       -0.44133       -1.25206
O         -1.48894       -0.69853       -1.27631
O          0.69467       -1.25372       -1.72543
C          0.28310       -2.53411       -2.24109
C          0.77460       -3.67668       -1.33338
O          0.24250       -3.44993       -0.00394
C          0.72905       -2.58538        0.91823
C          2.13093       -2.06440        0.77711
O          0.05225       -2.27530        1.89356
C          0.31797       -5.09000       -1.84621
O          0.85984       -5.30525       -3.17869
C          0.26268       -5.13771       -4.38149
C         -1.06036       -4.44413       -4.46851
O          0.84001       -5.52385       -5.39227
C          0.89097       -6.24364       -0.94458
O          0.39736       -6.05607        0.41547
C          1.16014       -5.90637        1.52454
C          2.61568       -5.60980        1.32888
O          0.66770       -5.98251        2.64354
C          0.45951       -7.68769       -1.31922
C          0.66335       -8.16869       -2.75204
O          1.38270       -9.10907       -3.07542
O          0.97476       -8.64326       -0.34603
C          2.21307       -9.16296       -0.21854
C          3.35666       -8.58570       -0.99674
O          2.42136      -10.04836        0.60854
H          0.11809        0.79599        0.42956
H         -0.16975        1.67753       -1.11005
H          1.36940        0.84690       -0.82773
H         -0.80392       -2.58701       -2.35765
H          0.73911       -2.61764       -3.23074
H          1.86757       -3.67445       -1.31093
H          2.12609       -0.99587        1.01322
H          2.78211       -2.58471        1.48267
H          2.55109       -2.15642       -0.22123
H         -0.77431       -5.16247       -1.83063
H         -0.90133       -3.38448       -4.68254
H         -1.62753       -4.88110       -5.29669
H         -1.67015       -4.56365       -3.57595
H          1.98002       -6.18987       -0.97614
H          2.76921       -4.86988        0.54236
H          3.01493       -5.17065        2.24854
H          3.16269       -6.52502        1.11146
H         -0.62782       -7.74741       -1.17427
H          0.05472       -7.66359       -3.51594
H          4.02577       -8.06514       -0.30701
H          3.90116       -9.40271       -1.47855
H          3.06563       -7.88215       -1.77147
