28

C          1.41606        0.23571        0.31761
N          0.38759        1.24551        0.18111
C          0.04997        1.91108       -0.96964
N         -0.30755        3.15857       -1.08810
N         -0.37448        3.95002       -0.00105
O          0.35274        3.74075        0.98892
O         -1.16865        4.89601       -0.04010
N          0.03030        1.20307       -2.14264
C         -0.15381       -0.21490       -2.36563
C         -1.61704       -0.68071       -2.41399
C         -2.57723       -0.06643       -1.41473
C         -2.35328       -0.87417       -0.15438
O         -1.80290       -2.13818       -0.55771
C         -1.68983       -2.14348       -1.98850
H          0.98026       -0.76644        0.28114
H          1.89053        0.32690        1.30011
H          2.19558        0.33802       -0.44280
H          0.42271        1.87286        0.98829
H         -0.30878        1.77479       -2.91237
H          0.28166       -0.43572       -3.35009
H          0.44223       -0.82022       -1.68637
H         -1.98681       -0.55167       -3.43772
H         -3.60364       -0.24421       -1.76359
H         -2.48894        1.01110       -1.26632
H         -1.64726       -0.39388        0.52597
H         -3.28597       -1.04358        0.39210
H         -2.58588       -2.63073       -2.38756
H         -0.81781       -2.73693       -2.28077
