18

O          1.01966       -0.09928        0.04739
C          0.33687       -1.13172        0.65733
C          0.75654       -1.59690        1.90692
Br         2.24737       -0.82380        2.78784
C          0.08185       -2.63832        2.52525
C         -1.01665       -3.21353        1.88559
Br        -1.87501       -4.64291        2.81040
C         -1.46027       -2.75150        0.61839
C         -2.56693       -3.28829       -0.08023
C         -2.94667       -2.78230       -1.31700
C         -2.20887       -1.74463       -1.83685
N         -1.14580       -1.20291       -1.21102
C         -0.76711       -1.68624       -0.00580
H          1.76237        0.15680        0.62026
H          0.40664       -3.00173        3.49705
H         -3.14960       -4.10856        0.33100
H         -3.79478       -3.18860       -1.85582
H         -2.45397       -1.30279       -2.79820
