15

Cl         1.37695       -0.68487        0.70957
C          3.00269       -0.05340        0.36248
C          3.08921        0.66781       -0.97965
S          2.58363        2.42703       -0.94379
C          0.76058        2.33121       -1.08182
C          0.23053        2.18426       -2.50534
Cl         0.21022        0.49804       -3.06969
H          3.31156        0.58435        1.19651
H          3.66572       -0.92423        0.34724
H          4.14873        0.69759       -1.26059
H          2.58819        0.11832       -1.77736
H          0.34159        1.58529       -0.40555
H          0.41064        3.30055       -0.70722
H         -0.80926        2.52459       -2.53983
H          0.79961        2.78270       -3.22348
