52

N          0.84156       -0.10408        0.07507
C          0.12614       -1.14349       -0.47682
N          0.57768       -2.37746       -0.26960
C         -0.15893       -3.37368       -0.77908
N          0.36401       -4.66852       -0.61542
C         -1.32761       -3.17887       -1.50157
N         -2.09589       -4.20876       -1.95886
C         -3.20371       -3.87192       -2.65104
C         -4.07071       -4.98527       -3.17396
N         -5.47577       -4.79996       -2.81060
C         -6.42811       -4.62711       -3.80569
C         -7.55823       -3.83643       -3.57270
C         -8.55032       -3.69166       -4.55329
C         -8.42814       -4.33869       -5.78902
C         -9.53561       -4.20116       -6.77154
O        -10.15138       -3.13750       -6.82304
N         -9.93888       -5.23527       -7.58716
C         -9.30218       -6.52569       -7.88277
C        -10.30418       -7.68554       -7.95977
C        -11.37831       -7.59375       -9.03638
C        -10.85117       -7.93933      -10.40003
O        -10.43160       -9.02336      -10.75656
O        -10.84951       -6.88707      -11.23745
C         -8.41187       -6.43388       -9.13210
O         -7.64895       -7.29859       -9.53096
O         -8.55250       -5.28438       -9.82406
C         -7.26385       -5.05432       -6.04972
C         -6.31609       -5.25292       -5.04840
C         -3.49842       -2.54273       -2.89738
N         -2.74430       -1.52503       -2.41878
C         -1.65830       -1.83361       -1.69965
N         -0.94517       -0.83281       -1.19700
H          0.66114        0.75248       -0.43060
H          1.80551       -0.37194        0.21350
H         -0.36744       -5.33876       -0.39714
H          1.13314       -4.64526        0.04473
H         -3.89222       -5.03665       -4.25294
H         -3.73511       -5.93925       -2.75170
H         -5.63534       -4.29105       -1.94573
H         -7.68300       -3.31802       -2.62455
H         -9.42007       -3.07006       -4.34642
H        -10.58027       -4.88664       -8.29193
H         -8.64823       -6.78188       -7.04982
H         -9.74408       -8.62191       -8.08522
H        -10.80930       -7.75495       -6.98745
H        -12.16958       -8.32253       -8.82179
H        -11.86184       -6.61259       -9.04801
H        -10.49580       -7.25363      -12.07579
H         -7.95747       -5.37221      -10.59724
H         -7.05374       -5.47992       -7.02157
H         -5.49159       -5.92604       -5.26631
H         -4.36524       -2.24613       -3.48104
