14

C          0.94113        0.15126        0.18969
C          0.42533        1.24045       -0.74008
C          0.98087        1.13371       -2.15556
C          0.38601       -0.01096       -2.92508
O         -0.55787        0.05147       -3.69521
O          0.99713       -1.18431       -2.68011
H          0.54830       -0.83076       -0.08988
H          0.62429        0.35290        1.21794
H          2.03465        0.10420        0.17526
H         -0.67041        1.21094       -0.75667
H          0.71563        2.21290       -0.32511
H          0.74335        2.04978       -2.71026
H          2.07320        1.04864       -2.16035
H          0.49970       -1.83039       -3.22385
