39

C          1.30647        0.06008       -0.15861
C          0.96841        0.66547       -1.49030
O          0.93779        0.04539       -2.54399
O          0.71691        2.02311       -1.31930
C          0.28095        2.66806       -2.48418
C          1.23941        3.45616       -3.13311
C          0.88409        4.19300       -4.26096
C         -0.42538        4.15010       -4.73483
C         -1.38459        3.37313       -4.07825
C         -1.05008        2.62672       -2.93587
C         -2.16313        1.87473       -2.28549
O         -3.30099        1.83493       -2.72445
O         -1.75038        1.29161       -1.14081
C         -2.71764        0.54156       -0.43370
C         -3.72528        1.21186        0.51764
O         -4.81122        0.65006        0.70578
N         -3.35874        2.31365        1.27111
C         -2.18678        3.17992        1.11918
C         -1.37760        3.21879        2.41917
O         -2.19753        3.60532        3.53225
C         -3.31376        2.71076        3.68678
C         -4.18468        2.69122        2.42334
H          0.96912       -0.98010       -0.14047
H          0.78102        0.58745        0.64377
H          2.38433        0.10943        0.00697
H          2.26011        3.49655       -2.76187
H          1.62689        4.80295       -4.76982
H         -0.70528        4.72590       -5.61432
H         -2.40444        3.36174       -4.46149
H         -3.28234       -0.08539       -1.13623
H         -2.15304       -0.15737        0.19608
H         -2.57493        4.18234        0.89870
H         -1.53954        2.89687        0.29953
H         -0.92823        2.24102        2.62854
H         -0.56785        3.95005        2.33129
H         -3.89873        3.05305        4.54529
H         -2.93086        1.70849        3.91544
H         -4.58190        3.69245        2.22101
H         -5.02746        2.00925        2.56669
