18

N          1.03545        0.02280       -0.14495
C          0.52265       -1.32955       -0.54737
C          1.06096       -2.39002        0.41615
O          0.42006       -3.21965        1.04012
O          2.40522       -2.32506        0.55523
C         -1.02205       -1.35298       -0.56911
N         -1.56070       -0.25015       -1.41084
C         -1.58677       -2.68253       -1.06996
O         -2.66077       -3.16528       -0.73916
O         -0.85575       -3.27089       -2.03829
H          0.76087        0.20267        0.82136
H          2.05718       -0.04588       -0.12440
H          0.92297       -1.55647       -1.54262
H          2.61994       -3.06084        1.16740
H         -1.39041       -1.21466        0.45612
H         -2.53332       -0.08404       -1.15786
H         -1.03014        0.59323       -1.17782
H         -1.42448       -4.01463       -2.32944
