23

Cl        -2.08733       -0.05993       -0.16109
C         -0.36996       -0.01115       -0.09420
C          0.35254       -1.19228        0.04140
C          1.74870       -1.14447        0.10947
C          2.43796        0.07615        0.03979
S          4.21826       -0.00540        0.17070
C          4.80049        1.68063        0.10060
C          4.56030        2.51964        1.20051
C          5.01884        3.84148        1.20711
Cl         4.64020        4.81464        2.58269
C          5.75064        4.33110        0.12147
Cl         6.35334        5.94851        0.06372
C          6.01867        3.49908       -0.96698
C          5.54767        2.18174       -0.97937
Cl         5.93198        1.22344       -2.36790
C          1.69334        1.25175       -0.11937
C          0.29430        1.20840       -0.17658
H         -0.15799       -2.14941        0.09748
H          2.29575       -2.08029        0.21850
H          4.00318        2.14413        2.05772
H          6.59841        3.87537       -1.80740
H          2.16914        2.22255       -0.20137
H         -0.26823        2.13299       -0.28576
