29

C          1.11515        0.82468       -0.46836
C          0.29020        0.73579       -1.72193
C         -0.86332        1.68967       -1.93350
C          0.37639        1.85738       -2.78428
C          1.22130        3.08698       -2.59034
C          0.54229        1.12267       -4.07643
O          0.61742        1.70945       -5.14709
N          0.66835       -0.22107       -3.82337
C          1.55560       -1.03569       -4.56900
C          1.30267       -2.39137       -4.78863
C          2.28047       -3.18313       -5.39616
Cl         1.95823       -4.84381       -5.71371
C          3.52597       -2.65436       -5.73509
C          3.77963       -1.31009       -5.49688
Cl         5.33504       -0.65172       -5.82444
C          2.79657       -0.49542       -4.94631
C          0.38167       -0.54472       -2.51525
O          0.30856       -1.63281       -1.98526
H          0.90038       -0.02360        0.18959
H          0.92157        1.74058        0.09709
H          2.18182        0.79242       -0.71921
H         -1.76941        1.31681       -2.39852
H         -1.05986        2.43498       -1.16848
H          0.65165        3.97845       -2.87041
H          1.57300        3.21255       -1.56448
H          2.10748        3.04461       -3.23528
H          0.35227       -2.83185       -4.49528
H          4.29604       -3.28659       -6.16716
H          3.03428        0.54651       -4.74013
