22

C          1.42891        0.27110        0.23763
C          0.52853       -0.09590        1.41428
N         -0.62691        0.75046        1.63155
C         -1.76324        0.65732        0.73941
C         -1.57542        1.24900       -0.65452
S         -2.58734       -0.94693        0.75147
C         -1.22096       -2.08739        0.45773
C         -0.86624       -2.25072       -1.01452
S          0.20412       -1.86566        1.54451
H          1.57409        1.35626        0.18454
H          1.05114       -0.06085       -0.72830
H          2.42387       -0.17224        0.36573
H          1.15557        0.09215        2.29497
H         -0.32352        1.72075        1.68475
H         -2.51736        1.30632        1.20216
H         -2.52977        1.28783       -1.19264
H         -1.20948        2.28003       -0.58340
H         -0.87269        0.69958       -1.27759
H         -1.62585       -3.05969        0.76105
H         -0.12899       -3.05068       -1.14988
H         -1.75120       -2.53813       -1.59501
H         -0.45866       -1.35168       -1.47263
