12

C          0.99613        0.07939        0.06883
N          0.52347        1.38311        0.53536
N         -0.92791        1.37517        0.54090
C         -1.40056        2.67889        1.00743
H          0.66294       -0.12073       -0.95525
H          0.65342       -0.73022        0.72234
H          2.09062        0.07083        0.06639
H          0.88499        1.52359        1.48442
H         -1.28943        1.23469       -0.40816
H         -1.05785        3.48851        0.35392
H         -2.49505        2.68745        1.00987
H         -1.06737        2.87901        2.03151
