33

C          0.29631       -0.33554        0.56443
C          0.80512       -1.56078       -0.19197
N          1.42471       -2.62427        0.62395
C          2.70269       -2.34085        1.12756
N          3.07702       -1.03687        1.25900
C          4.27244       -0.73079        1.80928
C          5.17936       -1.67609        2.22707
C          4.83211       -3.00556        2.05141
C          3.58068       -3.34754        1.50272
C          3.35859       -4.76957        1.20587
O          4.35815       -5.39890        0.84016
N          2.13882       -5.40022        1.44891
C          2.15131       -6.86203        1.36529
C          0.88724       -4.76243        1.74491
C         -0.09665       -5.50445        2.43419
C         -1.37579       -5.00396        2.63597
C         -1.65969       -3.76798        2.11473
N         -0.75659       -3.02569        1.44765
C          0.52138       -3.47891        1.28718
H         -0.22216       -0.58418        1.49308
H         -0.39861        0.22285       -0.07246
H          1.10751        0.35392        0.81374
H         -0.02682       -1.98969       -0.76842
H          1.51834       -1.23125       -0.96045
H          4.48024        0.33111        1.90348
H          6.13487       -1.39194        2.65143
H          5.54186       -3.78559        2.32026
H          2.20161       -7.27558        2.37759
H          1.25712       -7.22144        0.84521
H          3.01493       -7.23791        0.80882
H          0.11960       -6.48794        2.84117
H         -2.12669       -5.57225        3.17217
H         -2.64281       -3.31959        2.22164
