25

C          2.98343        0.00624        0.05664
C          1.48408        0.03095        0.02032
C          0.80826        1.25133        0.01763
C         -0.58360        1.27650       -0.01417
C         -1.31420        0.08704       -0.04375
O         -2.66868        0.25570       -0.06678
C         -0.67132       -1.15884       -0.04836
C         -1.36561       -2.51203       -0.09375
C         -2.18006       -2.80175        1.16972
C         -2.18480       -2.71927       -1.37071
C          0.74086       -1.15855       -0.01278
H          3.39023        0.52041       -0.82008
H          3.34652        0.49917        0.96423
H          3.36963       -1.01826        0.05395
H          1.35879        2.18850        0.04093
H         -1.10679        2.22924       -0.01459
H         -3.10349       -0.60580       -0.02513
H         -0.58617       -3.28672       -0.12219
H         -3.03491       -2.13138        1.29044
H         -2.56912       -3.82575        1.14626
H         -1.55528       -2.70416        2.06471
H         -1.56621       -2.55205       -2.25968
H         -2.56365       -3.74627       -1.41784
H         -3.04772       -2.05196       -1.43908
H          1.27720       -2.10670       -0.01266
