20

C          1.11748       -0.05490       -0.03734
C          0.62477        1.10078        0.81195
C          0.93595        2.43249        0.17815
O          0.07823        3.22364       -0.18741
O          2.28070        2.61945        0.10463
C          2.80709        3.83953       -0.46269
C          2.45203        3.99110       -1.93796
C          2.44939        5.06357        0.37308
H          0.72885        0.01374       -1.05876
H          0.79368       -1.00811        0.39169
H          2.21071       -0.06414       -0.09701
H         -0.46213        1.02930        0.93290
H          1.06364        1.07338        1.81480
H          3.89607        3.72127       -0.40698
H          1.38038        4.14658       -2.09128
H          2.97995        4.84228       -2.37969
H          2.72571        3.08589       -2.49029
H          2.72400        4.90207        1.42089
H          2.97504        5.95154        0.00775
H          1.37706        5.27767        0.35386
