21

O          1.48991        0.73686       -0.31479
C          2.46031        0.12651        0.12127
S          3.13041        0.45038        1.71493
C          2.10211        1.77704        2.18202
N          1.05448        1.60066        2.95809
N          0.44609        2.80047        3.28409
C          1.07892        3.82656        2.76088
S          0.57227        5.47011        3.05161
S          2.44742        3.41782        1.81674
C          3.14686       -0.89813       -0.72948
C          4.20400       -1.70583       -0.28123
C          4.82004       -2.61458       -1.14799
C          4.38537       -2.73197       -2.46601
C          3.32756       -1.94884       -2.92036
C          2.71037       -1.03935       -2.05750
H          1.61691        6.07360        2.47061
H          4.57519       -1.65602        0.73837
H          5.64257       -3.23126       -0.79215
H          4.86972       -3.43627       -3.13835
H          2.98293       -2.04258       -3.94758
H          1.88597       -0.43501       -2.43399
