34

C          1.39692       -0.05420       -0.41384
C          0.81451       -1.45551       -0.30865
C          1.17244       -2.15774        1.00415
C          0.55693       -1.52641        2.25354
O         -0.85376       -1.77826        2.27560
C         -1.69753       -0.80224        1.87706
O         -1.36298        0.32882        1.54187
N         -3.00322       -1.23121        1.74173
C         -3.64888       -2.39744        2.12223
S         -4.94826       -2.90080        1.19618
S         -3.01520       -3.22044        3.52845
C         -4.45092       -3.71351        4.51619
C         -5.11088       -2.59189        5.32549
C         -6.14086       -1.73670        4.58538
C         -7.34735       -2.52575        4.09395
H          1.04534        0.59801        0.38949
H          1.10434        0.40457       -1.36332
H          2.49022       -0.08466       -0.37364
H         -0.27193       -1.41725       -0.44050
H          1.20415       -2.05384       -1.14121
H          0.82537       -3.19657        0.92926
H          2.26248       -2.18719        1.11297
H          0.96714       -2.02785        3.13710
H          0.79170       -0.46316        2.35749
H         -3.52311       -0.64355        1.10601
H         -5.16316       -4.28942        3.92289
H         -4.04035       -4.42342        5.24485
H         -5.62311       -3.05555        6.17940
H         -4.34539       -1.93644        5.76025
H         -6.50369       -0.96274        5.27322
H         -5.67097       -1.20392        3.75444
H         -7.90030       -2.95636        4.93432
H         -8.02609       -1.86919        3.54065
H         -7.06812       -3.34392        3.42682
