36

C          0.55045       -0.33706       -0.09832
C          0.58866        0.35419        1.25365
O          0.92616        1.73526        1.12512
C          2.23553        2.06438        1.32034
C          2.46209        3.18726        2.10769
C          3.74797        3.71936        2.22005
C          4.83620        3.10835        1.59791
N          6.12892        3.73623        1.58655
S          7.05498        3.89715        3.00449
O          7.44044        2.56188        3.41933
O          8.06309        4.89265        2.72063
C          5.97257        4.56583        4.24164
C          5.76105        5.94903        4.31710
C          4.79942        6.44783        5.20237
C          4.07188        5.55743        6.00906
N          2.98705        6.06320        6.85963
O          2.87116        7.29080        6.97579
O          2.24015        5.23041        7.39283
C          4.33813        4.18075        5.97989
C          5.30530        3.68683        5.10458
C          4.60490        1.98225        0.80417
C          3.30579        1.46814        0.65777
H          0.27758        0.35751       -0.89887
H         -0.15917       -1.16947       -0.08603
H          1.52888       -0.75903       -0.34417
H         -0.42559        0.33826        1.67068
H          1.23072       -0.16939        1.97193
H          1.62719        3.68562        2.59422
H          3.85185        4.66074        2.74335
H          6.75528        3.29705        0.90786
H          6.30354        6.63216        3.66497
H          4.60744        7.51949        5.23093
H          3.78530        3.48188        6.60495
H          5.49059        2.61475        5.05502
H          5.41075        1.52057        0.23953
H          3.14877        0.64908       -0.03409
