15

C          0.86351       -0.00113        0.10421
C          0.53725       -0.56626       -1.24720
C          0.57791       -1.94845       -1.46258
C          0.30520       -2.47566       -2.72733
C         -0.00134       -1.62558       -3.79335
Cl        -0.32751       -2.34678       -5.32922
C         -0.03026       -0.24222       -3.59131
Cl        -0.39223        0.87261       -4.86145
C          0.24374        0.28293       -2.32295
H          0.47025       -0.64512        0.89781
H          0.41423        0.98871        0.23638
H          1.94802        0.08692        0.22085
H          0.82183       -2.62510       -0.64542
H          0.33638       -3.55255       -2.87516
H          0.22707        1.36061       -2.17261
