15

N          1.29032        0.02813        0.17234
C          2.44716        0.01175        0.08002
C          3.87546       -0.01265       -0.03982
C          4.59495        1.18841       -0.09057
C          5.98630        1.16969       -0.22001
C          6.65237       -0.05151       -0.29948
O          8.01072       -0.08941       -0.43744
C          5.93772       -1.24992       -0.24352
O          6.61416       -2.43449       -0.32435
C          4.55018       -1.23732       -0.11273
H          4.07683        2.14428       -0.03189
H          6.52981        2.10907       -0.25761
H          8.35245        0.81414       -0.51863
H          5.98652       -3.17312       -0.30470
H          3.99009       -2.16758       -0.06946
