27

C          0.91901        0.11004        0.07159
C          0.50356       -1.20277       -0.56013
C          1.04993       -2.41537       -0.02550
C          1.93920       -2.46711        1.07713
C          2.45416       -3.67261        1.56196
C          2.09430       -4.86804        0.95957
C          1.21751       -4.85411       -0.12211
C          0.69164       -3.64697       -0.61621
C         -0.19449       -3.66664       -1.69786
C         -0.75846       -2.49432       -2.21339
C         -1.65647       -2.58001       -3.29218
C         -2.24975       -1.44119       -3.82855
C         -1.95361       -0.20097       -3.28729
C         -1.06022       -0.10312       -2.21563
C         -0.42801       -1.23970       -1.64863
H          0.47955        0.19840        1.07043
H          0.62767        0.99122       -0.50051
H          2.01069        0.16698        0.14449
H          2.24524       -1.55681        1.58655
H          3.13407       -3.67070        2.40972
H          2.49018       -5.80962        1.32966
H          0.94222       -5.80193       -0.58021
H         -0.46092       -4.62338       -2.14476
H         -1.90474       -3.54682       -3.72561
H         -2.94199       -1.52581       -4.66145
H         -2.41472        0.69589       -3.69252
H         -0.87665        0.89435       -1.82911
