27

C          0.95963        0.15868       -0.30132
C          0.51796        1.44808        0.32344
O         -0.12920        2.27158       -0.32666
N          0.86675        1.75720        1.62098
C          1.83974        1.31305        2.49597
O          2.44169        2.14488        3.18051
C          2.21292       -0.16999        2.55253
O          1.16586       -1.12340        2.40753
C          0.19164       -1.04100        3.34753
O          0.14265       -0.22709        4.25357
C         -0.87359       -2.03416        3.07116
C         -2.16492       -1.76293        3.54014
C         -3.20017       -2.66713        3.30081
C         -2.94632       -3.84812        2.60384
C         -1.65912       -4.12781        2.14333
C         -0.62092       -3.22230        2.37338
H          0.72923        0.18788       -1.37172
H          0.41026       -0.67918        0.12890
H          2.03780        0.02638       -0.20655
H          0.64426        2.72893        1.80479
H          2.95476       -0.35804        1.77025
H          2.72069       -0.35946        3.50686
H         -2.36907       -0.84485        4.08812
H         -4.20350       -2.45089        3.66003
H         -3.75372       -4.55402        2.42266
H         -1.46544       -5.05426        1.60767
H          0.37780       -3.45918        2.01578
