49

C          1.02240        0.28095       -0.41652
C          0.76378       -1.18510       -0.72809
C          1.21391       -2.12298        0.39499
C          0.50714       -1.90064        1.73661
C         -1.01553       -2.06386        1.68378
C         -1.48093       -3.46933        1.28707
C         -1.03946       -4.57207        2.25644
C         -1.53665       -4.37780        3.69253
C         -3.06180       -4.34819        3.82379
C         -3.74800       -5.65850        3.42481
C         -3.38901       -6.85409        4.31661
C         -3.84168       -6.70434        5.77290
N         -5.28658       -6.61883        5.87920
C         -6.13663       -7.77608        5.78258
C         -7.46372       -7.19504        5.34234
C         -7.47164       -5.79503        5.94505
C         -6.00759       -5.44072        5.99714
O         -5.56234       -4.31240        6.13773
H          0.44056        0.61945        0.44597
H          0.73871        0.90418       -1.26980
H          2.08278        0.45218       -0.20608
H         -0.29922       -1.33113       -0.94906
H          1.30559       -1.45135       -1.64306
H          1.06933       -3.15948        0.06819
H          2.29375       -2.00561        0.54711
H          0.93057       -2.59166        2.47471
H          0.74086       -0.89914        2.11488
H         -1.43173       -1.79559        2.66155
H         -1.44527       -1.33849        0.98422
H         -2.57361       -3.46653        1.20101
H         -1.11577       -3.71460        0.28363
H         -1.38211       -5.53879        1.87083
H          0.05405       -4.63975        2.26931
H         -1.12142       -5.17160        4.32286
H         -1.13106       -3.44670        4.10414
H         -3.31276       -4.08756        4.85609
H         -3.47629       -3.53540        3.21695
H         -4.83324       -5.50523        3.43113
H         -3.50178       -5.90752        2.38653
H         -3.84848       -7.75060        3.88324
H         -2.30850       -7.03148        4.29280
H         -3.51261       -7.56902        6.35937
H         -3.39423       -5.81499        6.22772
H         -6.19542       -8.23862        6.77284
H         -5.74574       -8.49772        5.06046
H         -8.31800       -7.80090        5.65491
H         -7.48610       -7.12005        4.24741
H         -7.87638       -5.79028        6.96064
H         -8.01902       -5.09214        5.31166
