28

O          1.42740       -0.57969        1.18328
C          2.48480       -0.11598        0.75772
O          2.87439       -0.62363       -0.45273
C          4.15132       -0.84651       -1.08324
C          4.61287        0.32454       -1.91511
C          5.96515        0.42156       -2.27844
C          6.42220        1.50662       -3.02793
C          5.53273        2.49961       -3.43189
C          4.18321        2.40079       -3.10187
C          3.72284        1.31405       -2.35760
N          3.19414        0.91509        1.40149
C          4.51632        1.25683        1.14867
C          5.07271        2.36612        1.62448
F          6.34704        2.72846        1.41493
C          4.18519        3.20675        2.39173
O          4.71600        4.37377        2.77024
N          2.98126        2.93989        2.72209
C          2.45529        1.72117        2.31399
O          1.38078        1.38901        2.79924
H          4.88430       -1.16497       -0.33531
H          4.01271       -1.69978       -1.75770
H          6.67586       -0.34588       -1.97766
H          7.47260        1.57730       -3.29996
H          5.88898        3.34589       -4.01385
H          3.48584        3.16816       -3.42917
H          2.66106        1.25115       -2.12570
H          5.14624        0.59586        0.58739
H          4.03997        4.86257        3.27128
