25

C          1.09638       -0.10008       -0.13655
C          0.81274       -1.40653        0.59061
C          1.21103       -1.31470        2.03624
C          0.36030       -1.54799        3.04679
C          0.68919       -1.35876        4.50223
C          0.01617       -0.11384        5.09473
O         -1.41081       -0.27796        5.12559
C         -2.09112        0.25026        4.07698
O         -1.62441        0.94262        3.18545
O         -3.37249       -0.18970        4.14604
C         -4.15438        0.11286        2.99206
H          0.58527        0.74218        0.34278
H          0.75124       -0.16000       -1.17355
H          2.16994        0.11697       -0.15028
H         -0.25413       -1.64137        0.49307
H          1.36883       -2.22088        0.11426
H          2.23173       -1.00279        2.24599
H         -0.65747       -1.86215        2.82219
H          0.35466       -2.25220        5.04274
H          1.77362       -1.28012        4.64186
H          0.33873        0.00376        6.13524
H          0.31590        0.79996        4.56739
H         -4.02818        1.15161        2.67089
H         -3.88780       -0.57374        2.18214
H         -5.20677       -0.04196        3.24443
