57

C          1.02170       -0.38235       -1.57166
C          0.61783        0.30753       -0.28288
C          1.11194        1.74012       -0.19916
C          0.37620        2.32278        1.03517
C         -0.26474        3.71474        0.78904
C          0.65243        4.61017       -0.05700
C          0.18099        6.04197       -0.09593
C          0.02977        6.49513        1.31728
C          0.96448        7.29851        1.84951
C          0.80818        7.86430        3.19791
O          1.61083        8.66793        3.64238
C         -0.40157        7.46517        3.94746
C         -1.22865        6.51229        3.48659
C         -1.09791        5.82641        2.12249
C         -2.47127        6.01778        1.43608
C         -0.67815        4.29277        2.18382
F          0.46715        4.24600        2.96820
C         -1.68996        3.30766        2.85614
O         -1.24009        2.94620        4.16819
C         -1.97316        1.99793        2.05454
C         -0.71847        1.26708        1.47043
C         -0.15905        0.32694        2.58487
C         -0.88273        0.51151        0.08235
O         -1.48528        1.43296       -0.86084
C         -1.70005       -0.78277       -0.06324
O         -1.89324       -1.55534        0.87379
C         -2.23943       -1.08328       -1.48663
O         -3.23724       -0.17740       -1.93900
H          0.54497        0.04359       -2.45534
H          0.78737       -1.45147       -1.51082
H          2.10863       -0.31254       -1.70506
H          1.13508       -0.26853        0.49050
H          2.19879        1.80828       -0.09117
H          0.84887        2.25090       -1.13109
H          1.13247        2.42358        1.82351
H         -1.18109        3.61023        0.19527
H          0.66578        4.26261       -1.09586
H          1.68238        4.55889        0.31439
H         -0.76812        6.13488       -0.63591
H          0.90011        6.65512       -0.65037
H          1.86708        7.58140        1.31900
H         -0.56525        7.99229        4.87977
H         -2.09360        6.26323        4.09908
H         -3.30050        5.74436        2.10141
H         -2.63297        7.06384        1.14737
H         -2.58247        5.40470        0.53707
H         -2.65771        3.79563        3.00401
H         -0.29378        3.19193        4.22339
H         -2.67615        2.25476        1.25849
H         -2.52720        1.30523        2.70315
H          0.25070       -0.61327        2.20613
H          0.62879        0.81084        3.17121
H         -0.93845        0.01967        3.29039
H         -2.39923        1.58833       -0.55229
H         -1.42152       -1.06476       -2.21135
H         -2.65576       -2.09254       -1.51194
H         -2.75901        0.61022       -2.26573
