47

C          1.15237        0.11133       -0.16892
C          0.70165        0.82100        1.11272
C         -0.79660        0.68772        1.32013
C         -1.65119        1.87046        0.92817
C         -0.99579        3.22154        0.94409
C         -1.80931        4.38359        0.76138
N         -3.17854        4.24535        0.56099
C         -3.82211        4.91950       -0.56102
C         -4.77919        3.89953       -1.17820
C         -5.74003        3.30140       -0.14132
O         -6.80755        4.21084        0.12284
C         -5.06901        2.88738        1.17510
C         -4.06731        3.93341        1.67584
C         -1.17515        5.63513        0.69893
F         -1.90152        6.75197        0.52739
C          0.20012        5.75843        0.80098
C          0.98163        4.60990        0.96194
C          2.45791        4.77335        1.03303
O          2.94992        5.89132        0.92551
C          3.28026        3.55747        1.22841
C          4.75089        3.59617        1.33186
O          5.47126        4.57919        1.32425
O          5.31286        2.37319        1.43942
C          2.61331        2.39549        1.29123
N          1.24183        2.19581        1.17714
C          0.40597        3.31966        1.03108
H          0.77965        0.61413       -1.06535
H          0.79981       -0.92663       -0.17772
H          2.24540        0.06966       -0.23506
H          1.15947        0.26079        1.94115
H         -1.18498       -0.20047        0.80194
H         -0.97417        0.48072        2.38376
H         -2.08672        1.70478       -0.06435
H         -2.46833        1.86914        1.65325
H         -3.10171        5.23872       -1.32334
H         -4.36421        5.81119       -0.22186
H         -4.18024        3.08656       -1.61022
H         -5.33774        4.37125       -1.99360
H         -6.20835        2.41332       -0.58182
H         -6.44453        5.00109        0.55484
H         -5.81973        2.70264        1.95121
H         -4.54373        1.94115        1.00150
H         -3.52964        3.55568        2.55316
H         -4.59521        4.83796        2.00363
H          0.65280        6.74435        0.73816
H          6.27133        2.57694        1.48809
H          3.15467        1.46261        1.43266
