9

F          0.97444        0.07084        0.08830
C          2.31913        0.04872        0.08627
C          3.02800        1.17234        0.18974
C          4.50794        1.23637        0.19563
F          4.97176        1.99208       -0.82874
F          4.97176        1.79229        1.34080
F          5.08668        0.01525        0.08318
H          2.69787       -0.96039       -0.00666
H          2.51333        2.12100        0.27710
