32

C          0.93289       -0.04603       -0.25523
C          0.80837       -0.69931        1.12410
C          1.82402       -0.12491        2.13556
N          3.21455       -0.48263        1.99557
C          4.12307       -0.05290        1.07907
C          5.30091       -0.62318        1.50024
N          5.08617       -1.31125        2.65995
N          3.80270       -1.19661        2.97115
C         -0.62614       -0.59319        1.69536
C         -0.93753        0.76820        2.30572
O         -0.85011        1.83269        1.71372
O         -1.25812        0.74044        3.61093
N         -0.78720       -1.71116        2.64423
C         -1.89637       -2.50893        2.52395
O         -3.03411       -2.22133        2.24104
C         -1.05771       -3.79141        2.63188
C          0.15644       -2.86638        2.54948
S          0.91272       -2.51188        0.96154
O          0.01127       -2.90541       -0.10716
O          2.29176       -2.93908        0.92438
H          0.92248        1.04627       -0.18466
H          0.10961       -0.33928       -0.91617
H          1.85888       -0.34569       -0.75580
H          1.79908        0.97256        2.11121
H          1.54187       -0.40363        3.15941
H          3.88006        0.57976        0.23945
H          6.28109       -0.56578        1.04956
H         -1.36834       -0.73456        0.89687
H         -1.48332        1.66460        3.85077
H         -1.19016       -4.49077        1.80384
H         -1.18075       -4.31304        3.58495
H          0.86271       -2.90025        3.38337
