30

C          1.01614       -0.05640       -0.26076
C          0.66287       -0.40652        1.17618
C          1.09572        0.65908        2.18487
C          0.42130        2.02378        2.03616
C         -1.10934        2.05626        2.13072
C         -1.67931        1.62759        3.48829
C         -3.07187        2.21505        3.73380
C         -3.61515        1.39559        4.89618
C         -2.96608        0.01984        4.76795
C         -1.95734        0.12948        3.62642
H          0.47166        0.82788       -0.60413
H          0.75373       -0.88684       -0.92416
H          2.08900        0.13352       -0.36576
H         -0.41221       -0.59645        1.24860
H          1.16137       -1.34829        1.43576
H          0.93288        0.28134        3.19958
H          2.18039        0.80366        2.09736
H          0.83179        2.69239        2.80380
H          0.71460        2.46462        1.07549
H         -1.40901        3.09643        1.94395
H         -1.55362        1.46856        1.31945
H         -1.01286        1.95582        4.29671
H         -3.03692        3.28329        3.97017
H         -3.71175        2.08375        2.85249
H         -4.70793        1.33895        4.87763
H         -3.32440        1.85301        5.84912
H         -3.70735       -0.75887        4.55998
H         -2.46422       -0.24740        5.70468
H         -2.40584       -0.26907        2.70832
H         -1.06028       -0.45644        3.84011
