23

C          1.42923        1.16984        0.12753
N          0.01597        1.39081       -0.09939
C         -0.62316        1.29296       -1.29145
O         -1.53201        2.08564       -1.53950
N         -0.20288        0.42015       -2.23168
C          0.08653       -0.91472       -2.08087
N          0.43693       -1.65185       -3.10676
C          0.63347       -2.96034       -2.69774
C          1.05441       -4.02939       -3.51423
C          1.21124       -5.30544       -2.96282
C          0.95000       -5.52768       -1.61418
C          0.52790       -4.48471       -0.78371
C          0.37874       -3.20697       -1.34744
S         -0.11777       -1.73822       -0.60262
H          1.92516        0.71758       -0.73356
H          1.54384        0.54254        1.01477
H          1.89128        2.14235        0.32131
H         -0.41585        2.09580        0.48559
H         -0.48222        0.64235       -3.17664
H          1.25573       -3.85263       -4.56623
H          1.53838       -6.12752       -3.59552
H          1.07392       -6.52599       -1.19897
H          0.32156       -4.65996        0.26781
