17

C          1.02853       -0.15707        0.08940
C          0.53195        0.53448        1.32762
C         -0.17429       -0.20928        2.29117
C         -0.68232        0.38702        3.45039
N         -1.27243       -0.39953        4.44626
C         -0.38345        1.72623        3.69900
C          0.31887        2.48405        2.75960
C          0.76783        1.89384        1.57610
Br         1.72224        2.99084        0.35447
H          0.64218        0.33581       -0.80840
H          0.69510       -1.19983        0.05143
H          2.12291       -0.16058        0.06740
H         -0.33202       -1.27415        2.13316
H         -1.87205        0.12179        5.07825
H         -1.72494       -1.23685        4.09307
H         -0.69489        2.19422        4.62896
H          0.52302        3.53084        2.96925
