28

C          0.13062       -0.31101       -0.59015
C         -0.03759        1.18928       -0.76632
O          1.06079        1.81296       -1.41634
C          2.36509        1.61863       -0.86246
C          2.67359        2.48995        0.36032
O          2.77495        1.78656        1.60668
C          1.57752        1.60860        2.34809
C          1.01390        2.83196        3.08618
O          1.28057        4.10350        2.48072
C          2.39659        4.83301        2.72890
C          3.54001        4.17691        3.45046
O          2.49479        5.97582        2.30308
H          0.37478       -0.78151       -1.54770
H         -0.78347       -0.76121       -0.19366
H          0.94304       -0.55208        0.10203
H         -0.91443        1.36282       -1.39982
H         -0.25832        1.70189        0.17198
H          2.59001        0.56161       -0.70541
H          3.03125        1.95854       -1.66486
H          3.68536        2.88750        0.21387
H          1.99734        3.34236        0.41255
H          0.81411        1.14282        1.73259
H          1.79311        0.85137        3.11242
H         -0.07844        2.73094        3.11468
H          1.31068        2.84030        4.13880
H          4.18155        3.66082        2.73377
H          4.12663        4.95764        3.94451
H          3.22337        3.49405        4.23638
