49

O          0.96216        0.70046        1.20611
C          1.98605        0.18059        0.79091
C          2.70922        0.65601       -0.45684
C          3.75663        1.72993       -0.16305
C          5.10205        1.31294        0.46342
N          5.97132        0.49287       -0.40139
C          5.73969       -0.94482       -0.22211
C          6.56908       -1.77485       -1.19778
C          8.07629       -1.48969       -1.08637
O          8.57318       -2.02364        0.15123
C          8.82558       -2.26192       -2.18085
C          8.74932       -3.67251       -2.20776
C          9.37767       -4.41776       -3.20757
C         10.10488       -3.76242       -4.18851
F         10.70629       -4.47171       -5.15239
C         10.22075       -2.37984       -4.18137
C          9.58747       -1.63354       -3.18208
C          8.30767        0.03369       -1.09256
C          7.39037        0.78567       -0.12469
C          2.60034       -0.90653        1.57849
C          2.62791       -2.21803        1.09585
C          3.29158       -3.20006        1.83492
C          3.91304       -2.85875        3.03468
F          4.58030       -3.79520        3.72049
C          3.85946       -1.55990        3.53044
C          3.18036       -0.57987        2.80927
H          3.09543       -0.17862       -1.04159
H          1.93443        1.10105       -1.09632
H          3.97132        2.26120       -1.09944
H          3.30500        2.47533        0.50617
H          5.61127        2.26515        0.67081
H          4.97049        0.85307        1.44584
H          4.70203       -1.19720       -0.42266
H          5.94573       -1.25259        0.81071
H          6.22351       -1.57025       -2.22061
H          6.35298       -2.83081       -0.99250
H          8.10018       -1.60903        0.88838
H          8.19804       -4.20199       -1.43260
H          9.30520       -5.50004       -3.22106
H         10.80312       -1.88705       -4.95322
H          9.70839       -0.55466       -3.21138
H          9.34853        0.25886       -0.82723
H          8.12474        0.44353       -2.09411
H          7.58175        1.85769       -0.25964
H          7.64663        0.54485        0.91526
H          2.14637       -2.47805        0.15664
H          3.33614       -4.22701        1.48435
H          4.34912       -1.31884        4.46878
H          3.13060        0.43962        3.18536
