19

C          0.77492        0.05642       -0.11499
O          0.24137       -0.14550       -1.42480
C          0.91769        0.50719       -2.40261
O          1.88626        1.23374       -2.24738
C          0.34858        0.17012       -3.73179
C         -0.97324       -0.27254       -3.88670
C         -1.46770       -0.57249       -5.15973
C         -0.63686       -0.43139       -6.26795
O         -1.07732       -0.71369       -7.52649
C          0.67509        0.00740       -6.12725
C          1.16846        0.31570       -4.85863
H          0.31935       -0.67960        0.55326
H          0.51771        1.05866        0.23972
H          1.85952       -0.09402       -0.09756
H         -1.62714       -0.37866       -3.02448
H         -2.49388       -0.91093       -5.26524
H         -2.00965       -0.98184       -7.48057
H          1.31157        0.11145       -7.00177
H          2.19413        0.66295       -4.75095
