28

C          0.81780        0.11653        0.11498
C          0.28036       -0.91282       -0.56165
C         -1.19277       -1.15855       -0.63664
C          1.20332       -1.80052       -1.32299
O          2.30639       -1.44465       -1.70990
O          0.62880       -3.01097       -1.50292
C          1.26434       -4.04796       -2.29888
C          2.77875       -4.19043       -2.09039
C          3.35383       -5.45145       -2.72799
C          2.62909       -6.69979       -2.25009
C          1.13754       -6.59771       -2.54018
C          0.53325       -5.34596       -1.91436
H          0.20052        0.82118        0.66223
H          1.89188        0.28567        0.13438
H         -1.51894       -1.20995       -1.68081
H         -1.45993       -2.09489       -0.13729
H         -1.76135       -0.35338       -0.15791
H          1.05393       -3.82664       -3.35288
H          3.30271       -3.34024       -2.53855
H          3.00958       -4.16920       -1.01866
H          4.42090       -5.52720       -2.49048
H          3.27565       -5.37779       -3.82012
H          2.79011       -6.82884       -1.17262
H          3.04596       -7.58362       -2.74541
H          0.62784       -7.48670       -2.15140
H          0.97353       -6.58321       -3.62436
H          0.53763       -5.45047       -0.82085
H         -0.52493       -5.26805       -2.19417
