35

C          2.49742       -0.04427        0.08680
C          0.99689       -0.00422        0.10211
C          0.26669       -1.16271       -0.19303
C         -1.12811       -1.13742       -0.19027
C         -1.79991        0.04513        0.13307
S         -3.57210        0.04852        0.06551
O         -3.96919       -0.79735       -1.04143
O         -4.04736       -0.18331        1.40745
N         -4.00970        1.59940       -0.32116
C         -3.63515        2.29813       -1.56030
C         -4.37904        1.77247       -2.79178
C         -5.89778        1.67193       -2.65821
C         -6.57689        2.98926       -2.89437
O         -6.63562        3.58972       -3.95339
O         -7.13026        3.50511       -1.78276
C         -3.85993        3.80029       -1.36937
O         -3.64623        4.67757       -2.18941
O         -4.34222        4.12334       -0.14445
C         -1.08501        1.19610        0.47162
C          0.31220        1.16934        0.44773
H          2.86958       -0.55825        0.97826
H          2.85522       -0.56931       -0.80545
H          2.92237        0.96455        0.06336
H          0.78238       -2.09058       -0.43350
H         -1.68343       -2.04127       -0.43398
H         -4.42469        2.16322        0.42690
H         -2.55650        2.18911       -1.71645
H         -4.12714        2.39793       -3.65824
H         -3.99529        0.77326       -3.02778
H         -6.28801        0.98571       -3.41986
H         -6.20576        1.25511       -1.69414
H         -7.56770        4.32372       -2.10047
H         -4.47770        5.09440       -0.19032
H         -1.59557        2.11315        0.75045
H          0.86662        2.07172        0.69843
