22

Cl        -2.19206        2.22519       -0.11422
C         -0.98382        1.00277       -0.05667
C         -1.34916       -0.31739        0.17865
C         -0.36551       -1.30989        0.22973
Cl        -0.89744       -2.93004        0.53853
C          0.99890       -1.00349        0.04047
C          2.03782       -2.05276        0.10487
C          2.26693       -2.86721       -1.02042
C          3.23826       -3.87461       -0.99743
Cl         3.43379       -4.83226       -2.42152
C          4.00476       -4.07667        0.15364
Cl         5.22458       -5.29588        0.25179
C          3.79298       -3.27851        1.27925
C          2.81469       -2.28006        1.25739
Cl         2.59006       -1.34906        2.69875
C          1.33109        0.34603       -0.20640
Cl         2.96848        0.84188       -0.48347
C          0.35014        1.34162       -0.24957
H         -2.39550       -0.57490        0.32549
H          1.67592       -2.71868       -1.92340
H          4.38765       -3.43600        2.17623
H          0.62795        2.37678       -0.43401
