42

C          0.88708        0.09982        0.28973
C          0.46212        1.54027        0.01600
C          0.91864        2.03250       -1.37286
C          0.18891        1.26519       -2.48287
N          0.59092        3.45927       -1.55878
C          1.54173        4.49288       -1.51776
C          1.34149        5.61775       -0.65181
N          0.19647        5.69323        0.29295
O          0.12231        6.68420        1.03497
O         -0.63179        4.77077        0.30099
C          2.20660        6.74529       -0.64653
C          3.33081        6.82464       -1.47249
C          4.22165        8.08129       -1.48220
C          3.39837        9.30117       -1.95315
C          4.76069        8.35268       -0.06211
C          5.44501        7.97267       -2.42190
C          3.55981        5.72412       -2.30084
C          2.68649        4.59654       -2.35644
N          3.00820        3.67297       -3.46982
O          3.53589        4.17231       -4.47694
O          2.83219        2.45945       -3.33897
H          0.43668       -0.59808       -0.42291
H          0.57375       -0.20641        1.29253
H          1.97537       -0.00506        0.22839
H         -0.62806        1.61685        0.11209
H          0.89101        2.18350        0.79369
H          1.99473        1.85841       -1.41198
H         -0.88764        1.21005       -2.28138
H          0.30280        1.75550       -3.45585
H          0.56974        0.24436       -2.57780
H         -0.25258        3.67631       -1.01126
H          1.98473        7.58986        0.00742
H          2.56111        9.52089       -1.28173
H          4.02026       10.20353       -1.99766
H          2.98264        9.13593       -2.95439
H          5.30290        7.48254        0.32579
H          5.44965        9.20550       -0.05689
H          3.95935        8.58643        0.64717
H          6.09156        7.13183       -2.14563
H          5.14101        7.84206       -3.46738
H          6.05891        8.88043       -2.38015
H          4.41855        5.74029       -2.97195
