41

O          1.28744       -0.11587       -0.79428
C          2.44686        0.10574       -0.48049
O          3.22958        0.95111       -1.18541
C          3.14029       -0.52035        0.70773
C          2.57592       -0.02668        2.03878
C          1.12285       -0.42989        2.32084
C          0.85489       -1.93789        2.28247
C          1.59999       -2.73475        3.35849
C          1.17940       -2.39844        4.79456
C         -0.30160       -2.65656        5.09834
C         -0.73670       -4.11371        4.91026
C         -0.06334       -5.09724        5.87341
C         -0.41478       -4.88882        7.35223
C         -1.90312       -4.98636        7.67938
C         -2.42510       -6.38705        7.53051
O         -2.57367       -7.19843        8.42953
O         -2.70916       -6.71350        6.25672
H          4.13949        1.03966       -0.84759
H          3.07888       -1.60838        0.60564
H          4.21053       -0.28731        0.67364
H          3.21613       -0.39675        2.84856
H          2.64205        1.06770        2.07553
H          0.83170       -0.02515        3.29713
H          0.46080        0.06169        1.59963
H         -0.22411       -2.10521        2.37394
H          1.11925       -2.33941        1.29826
H          1.44969       -3.80396        3.17060
H          2.67959       -2.57565        3.26012
H          1.80433       -2.97364        5.48693
H          1.40365       -1.34750        5.00897
H         -0.51385       -2.33319        6.12346
H         -0.92531       -2.01888        4.46161
H         -1.82542       -4.17277        5.01283
H         -0.53366       -4.43414        3.88234
H         -0.32728       -6.11778        5.57483
H          1.02552       -5.04095        5.76191
H          0.13356       -5.63396        7.94200
H         -0.04487       -3.91033        7.67978
H         -2.06329       -4.69255        8.72387
H         -2.51566       -4.30120        7.08532
H         -2.98269       -7.65326        6.30375
