93

C          0.94100        0.25383        0.17569
C          0.50296        0.94783       -1.10722
C          0.95832        0.23291       -2.38348
C          0.52507       -1.23239       -2.49726
C         -0.99941       -1.48650       -2.52374
C         -1.70125       -0.83791       -3.73782
C         -1.27242       -1.37375       -5.09967
C         -1.33868       -2.99095       -2.44106
O         -0.80391       -3.59201       -1.24868
C          0.38172       -4.22940       -1.39927
O          1.05595       -4.33902       -2.40707
C          0.80120       -4.74344       -0.09041
C          1.94980       -4.23871        0.51958
C          2.36422       -4.76994        1.74385
C          1.65537       -5.82995        2.34170
C          2.17973       -6.32751        3.63128
O          2.56639       -5.57140        4.50744
O          2.29131       -7.67526        3.60857
C          2.78496       -8.29941        4.81361
C          4.15380       -8.95464        4.54555
C          5.24475       -7.89385        4.26260
C          5.59913       -6.99439        5.44111
C          4.59528       -9.89677        5.68836
C          3.80857      -11.20769        5.82800
C          3.83934      -12.14342        4.61488
C          5.22886      -12.62963        4.24065
C          0.51153       -6.33819        1.71050
C         -0.29337       -7.43415        2.28579
O         -0.58773       -7.53929        3.46200
O         -0.62473       -8.26403        1.26710
C         -1.40406       -9.43420        1.56783
C         -0.55967      -10.68967        1.28799
C          0.72072      -10.72844        2.14945
C          0.45655      -10.92103        3.63432
C         -1.37014      -11.98775        1.47386
C         -2.52131      -12.20877        0.48980
C         -2.13896      -12.20358       -0.99062
C         -1.06975      -13.22452       -1.34851
C          0.07496       -5.77654        0.49851
H          0.43396       -0.70719        0.30647
H          0.69395        0.87424        1.04302
H          2.02151        0.07833        0.18072
H         -0.58619        1.06330       -1.10461
H          0.92217        1.96109       -1.11415
H          0.61297        0.79796       -3.25584
H          2.05509        0.26194       -2.42199
H          0.98675       -1.66537       -3.39220
H          0.97529       -1.76004       -1.65253
H         -1.41976       -1.02828       -1.61919
H         -2.78484       -0.98056       -3.63939
H         -1.54124        0.24588       -3.72157
H         -1.52823       -2.43104       -5.21532
H         -1.78844       -0.82661       -5.89539
H         -0.19787       -1.25718       -5.26421
H         -2.42716       -3.11090       -2.38068
H         -1.01447       -3.53955       -3.33148
H          2.51577       -3.43624        0.05060
H          3.25263       -4.36568        2.22882
H          2.82229       -7.60575        5.65983
H          2.04474       -9.05208        5.08815
H          4.06793       -9.53582        3.61910
H          6.15888       -8.40700        3.93774
H          4.93585       -7.26754        3.41787
H          6.06890       -7.56264        6.24942
H          6.31038       -6.22614        5.12144
H          4.72442       -6.48189        5.84812
H          5.65613      -10.14627        5.56474
H          4.52014       -9.36254        6.64417
H          4.20909      -11.75256        6.69293
H          2.76596      -10.98392        6.07913
H          3.21373      -13.01634        4.83967
H          3.39307      -11.66148        3.74084
H          5.71652      -13.12174        5.08721
H          5.16074      -13.35305        3.42113
H          5.86165      -11.80479        3.90107
H         -1.79906       -9.42065        2.58857
H         -2.26412       -9.40228        0.89142
H         -0.20797      -10.62687        0.25012
H          1.36215      -11.54732        1.79966
H          1.30432       -9.81303        1.99820
H          0.01030      -11.89636        3.84363
H          1.39453      -10.88310        4.18136
H         -0.19235      -10.14338        4.04255
H         -0.69032      -12.84734        1.41868
H         -1.79915      -12.00714        2.48350
H         -2.98480      -13.17477        0.72859
H         -3.29842      -11.45457        0.65806
H         -3.03961      -12.42114       -1.57713
H         -1.80777      -11.20450       -1.29361
H         -1.36654      -14.23091       -1.03685
H         -0.91081      -13.23735       -2.43140
H         -0.11151      -12.98526       -0.87765
H         -0.82105       -6.14908        0.00531
