32

N         -1.74072       -2.12347        0.01100
C         -1.35117       -0.76653       -0.07243
C         -2.29284        0.27296        0.00777
S         -4.04998        0.01970        0.03710
O         -4.51106        0.28142        1.38238
O         -4.60336        0.72206       -1.09991
O         -4.32402       -1.55241       -0.21824
C         -1.89189        1.61212        0.00968
C         -0.53527        1.93717       -0.02442
S         -0.10112        3.66258       -0.03130
O          0.55545        3.96240        1.22129
O          0.51572        3.95973       -1.30443
O         -1.49364        4.47745       -0.00718
C          0.46479        0.93417       -0.03442
C          1.85782        1.21824       -0.03914
C          2.82270        0.21339       -0.01811
C          2.41322       -1.10864        0.02236
S          3.64606       -2.37644        0.04989
O          4.44383       -2.24326       -1.14830
O          4.24477       -2.38519        1.36548
O          2.84995       -3.77412       -0.08847
C          1.05387       -1.42936        0.02114
C          0.04612       -0.43236       -0.02804
H         -1.13028       -2.76513       -0.48574
H         -2.71208       -2.29749       -0.26167
H         -5.13093       -1.78483        0.29272
H         -2.64963        2.39451        0.03712
H         -1.28433        5.43380        0.04279
H          2.23011        2.24209       -0.05517
H          3.87945        0.47290       -0.02464
H          3.48818       -4.49657        0.08985
H          0.78155       -2.47985        0.07389
