27

C          0.88485        0.09316        0.03329
C          0.10410       -0.97318        0.25767
C         -1.38455       -1.09861        0.05003
C         -1.72863       -2.25309       -0.88671
O         -1.95639       -1.35396        1.33396
C         -2.83326       -0.35601        1.64288
O         -3.44338       -0.36387        2.70404
N         -2.94807        0.53054        0.61512
C         -3.81644        1.65663        0.59357
C         -4.31684        2.16161       -0.61729
C         -5.18488        3.25733       -0.63254
Cl        -5.82324        3.81667       -2.13026
C         -5.54926        3.89245        0.54751
C         -5.04896        3.41073        1.75055
Cl        -5.46267        4.20613        3.22010
C         -4.20453        2.29662        1.78117
C         -2.11851        0.15415       -0.40622
O         -1.94362        0.70624       -1.48554
H          0.50684        1.03295       -0.35807
H          1.95144        0.04492        0.23952
H          0.58465       -1.86774        0.65532
H         -1.30505       -2.10011       -1.88570
H         -1.36137       -3.20776       -0.49359
H         -2.81477       -2.35807       -0.99660
H         -4.07641        1.68861       -1.56686
H         -6.21446        4.75100        0.52997
H         -3.82761        1.96753        2.74729
