23

Cl         2.51238        1.18091       -1.14519
C          1.05707        0.53625       -0.46960
C          0.00042        1.42485       -0.26652
C         -1.19135        0.97941        0.30964
Cl        -2.43918        2.15634        0.53809
C         -1.33874       -0.36266        0.69151
Cl        -2.77711       -0.87386        1.51798
C         -0.28784       -1.26784        0.44456
O         -0.33653       -2.58424        0.85863
C         -1.28018       -3.42066        0.30404
C         -1.72470       -4.45088        1.13770
C         -2.70213       -5.34118        0.69521
C         -3.22616       -5.21286       -0.58917
C         -2.76011       -4.20572       -1.43612
C         -1.77852       -3.31303       -0.99576
C          0.92003       -0.81291       -0.11787
Cl         2.22730       -1.92918       -0.35745
H          0.11146        2.47233       -0.54129
H         -1.32135       -4.54708        2.14229
H         -3.05741       -6.12865        1.35487
H         -3.99529       -5.90067       -0.93189
H         -3.16519       -4.11707       -2.44103
H         -1.42294       -2.54849       -1.67870
