12

C          0.98046       -0.07133       -0.08242
O          0.39867        1.05312       -0.71328
S          1.10827        2.51270       -0.55608
C          0.42076        2.95341        1.02345
O          2.53759        2.34291       -0.40434
O          0.54775        3.39795       -1.55544
H          0.49980       -0.97241       -0.47277
H          0.80527       -0.02617        0.99583
H          2.05240       -0.13960       -0.28622
H          0.79991        2.26670        1.78208
H          0.73840        3.97180        1.25666
H         -0.66772        2.90573        0.96211
