25

C          1.33981        0.52125        0.35003
C          0.13456        0.95372       -0.48676
N          0.51171        0.96614       -1.90562
C         -0.19875        1.41769       -2.98950
O          0.32087        1.44562       -4.10001
C         -1.61915        1.79531       -2.84241
C         -2.56625        1.06762       -3.57188
C         -3.92178        1.37051       -3.44718
C         -4.32731        2.40717       -2.60607
C         -3.37914        3.15338       -1.90268
C         -2.02041        2.85672       -2.02775
C         -1.04347        0.03790       -0.11596
O         -1.60568        0.01851        0.97010
O         -1.40978       -0.83532       -1.07380
H          1.63238       -0.50940        0.11548
H          1.11628        0.56572        1.42117
H          2.20737        1.16271        0.15832
H         -0.14274        1.97677       -0.21654
H          1.46719        0.73313       -2.14793
H         -2.24447        0.26132       -4.22749
H         -4.65924        0.80121       -4.00745
H         -5.38463        2.64301       -2.50887
H         -3.70134        3.97208       -1.26362
H         -1.28799        3.46269       -1.50322
H         -2.16708       -1.32120       -0.68597
