43

C          1.71873       -0.08270        0.46414
C          0.96851        1.07184        1.11192
C          1.09143        2.38573        0.33696
C          0.38292        2.39989       -1.01501
O         -1.04308        2.33906       -0.85185
C         -1.62474        1.16343       -1.18444
O         -1.08446        0.10385       -1.45278
C         -3.08077        1.33436       -1.13738
C         -3.73403        0.79494       -0.01712
C         -5.12112        0.88096        0.09291
C         -5.85900        1.49381       -0.91635
C         -5.20986        2.02727       -2.03358
C         -3.81026        1.95627       -2.16215
C         -3.22921        2.55757       -3.39657
O         -3.89032        3.22556       -4.17793
O         -1.92140        2.26279       -3.52889
C         -1.26440        2.76894       -4.69562
C         -1.24180        1.70284       -5.75677
C         -1.94953        1.87498       -6.95309
C         -1.93433        0.88009       -7.93124
C         -1.21671       -0.29613       -7.72017
C         -0.51730       -0.48178       -6.52899
C         -0.53090        0.51174       -5.54968
H          1.33024       -0.31751       -0.52978
H          1.62330       -0.98348        1.07891
H          2.78421        0.14848        0.36705
H         -0.08457        0.80248        1.24524
H          1.38060        1.22485        2.11676
H          0.66882        3.18300        0.96061
H          2.15220        2.61986        0.18719
H          0.59075        3.35569       -1.50935
H          0.76050        1.62073       -1.68624
H         -3.16086        0.30448        0.76743
H         -5.62693        0.46392        0.96087
H         -6.94266        1.55406       -0.83991
H         -5.80890        2.49499       -2.81477
H         -1.71497        3.70282       -5.05244
H         -0.23446        3.01589       -4.41208
H         -2.52689        2.78151       -7.12381
H         -2.48895        1.02073       -8.85512
H         -1.20977       -1.07211       -8.48073
H          0.03262       -1.40345       -6.35802
H          0.00413        0.34860       -4.61557
