71

C          0.56335        0.08653        0.12268
C          0.54185       -0.74114       -1.15353
N          1.12290       -2.06615       -0.96735
C          0.32992       -3.08570       -0.31714
C          0.88218       -4.45580       -0.64337
N          2.25800       -4.58819       -0.19039
C          2.70716       -5.88362       -0.17093
O          2.21580       -6.75678       -0.89114
N          3.58447       -6.29649        0.76789
C          4.41884       -5.59798        1.75657
C          4.31411       -6.27855        3.16057
O          5.18652       -6.20606        4.02512
N          3.18342       -7.00250        3.47725
C          1.87652       -6.33776        3.83258
C          1.69873       -4.81111        3.72232
O          2.21472       -3.85182        4.25203
N          0.49869       -4.94877        3.04034
C         -0.63678       -4.46553        3.68732
C         -0.87343       -2.99188        3.50427
O         -0.04949       -2.16581        3.15611
O         -2.16778       -2.64632        3.62176
C         -1.35667       -5.22165        4.55495
C         -2.29932       -4.66447        5.61595
S         -1.44723       -3.52101        6.76665
C         -0.14713       -4.50957        7.32484
N         -0.21170       -5.79014        7.60806
N          1.06973       -6.17106        7.92086
N          1.90535       -5.14552        7.83374
N          1.14397       -4.09265        7.47576
C          1.73987       -2.79679        7.30861
C         -1.21905       -6.71800        4.66499
S         -0.64650       -7.48631        3.15446
C          0.73092       -6.38991        2.81024
C          5.87490       -5.64142        1.29221
C          6.50274       -6.86179        0.97018
C          7.83238       -6.89562        0.54322
C          8.54708       -5.70857        0.44236
O          9.84465       -5.69623        0.02330
C          7.95725       -4.49536        0.77084
C          6.62893       -4.46176        1.20216
C          3.12999       -3.57400       -0.60859
O          4.35116       -3.64312       -0.54992
C          2.50657       -2.22781       -1.08433
O          3.23913       -1.35468       -1.53632
H         -0.02836       -0.38780        0.91164
H          0.14494        1.08040       -0.06302
H          1.58498        0.20872        0.49732
H         -0.48595       -0.86006       -1.51344
H          1.10030       -0.21197       -1.93325
H         -0.70457       -3.01261       -0.66804
H          0.35696       -2.90046        0.75822
H          0.86074       -4.62749       -1.72849
H          0.26570       -5.22938       -0.17078
H          3.78705       -7.28101        0.65980
H          4.06369       -4.56942        1.86888
H          3.47574       -7.58427        4.26499
H          1.61126       -6.66009        4.84908
H         -2.17094       -1.67930        3.45614
H         -3.16461       -4.17209        5.16338
H         -2.71545       -5.47128        6.23073
H          1.78055       -2.31458        8.28859
H          2.75036       -2.91669        6.90915
H          1.14931       -2.19479        6.61576
H         -2.19918       -7.16538        4.86268
H         -0.56275       -7.00272        5.48786
H          1.07907       -6.54391        1.78690
H          5.96507       -7.80264        1.05416
H          8.28738       -7.84973        0.29863
H         10.10925       -6.60732       -0.18088
H          8.52455       -3.57330        0.68513
H          6.18078       -3.49967        1.44181
