8

O          0.91794        0.05549       -0.02995
C          2.14056       -0.02021       -0.04205
O          2.92086        1.09164        0.13565
C          2.95702       -1.30155       -0.24684
F          2.73346       -2.23872        0.71127
F          2.73346       -1.89340       -1.44933
F          4.29580       -1.02040       -0.20191
H          3.88102        0.88215        0.10217
