46

C          0.87641        0.44531        0.68634
N          0.35818        1.40143       -0.25367
C         -0.26745        1.29647       -1.46741
O         -0.59538        2.37082       -1.97783
C         -0.64155        0.00997       -2.22744
N         -0.23597       -1.21897       -2.08347
O          0.78078       -1.41073       -1.16887
C          0.92208       -2.80804       -0.93596
C         -1.61869        0.20860       -3.34992
C         -2.82742       -0.50319       -3.29881
C         -3.75514       -0.38983       -4.33622
C         -3.49782        0.45739       -5.41093
C         -2.28749        1.14669       -5.47992
C         -1.30443        0.98221       -4.48531
C          0.07720        1.54884       -4.74052
O          0.54694        1.11625       -6.03446
C          1.49579        0.12992       -5.93986
C          2.83855        0.51669       -6.00526
C          3.85563       -0.44752       -6.00880
C          5.28866       -0.04030       -6.17587
C          3.51354       -1.79540       -5.87138
C          2.17414       -2.17977       -5.82567
C          1.15014       -1.22763       -5.92292
C         -0.26198       -1.72100       -6.01516
H          0.15547       -0.35469        0.85711
H          1.05954        0.96816        1.62927
H          1.83632        0.07111        0.32115
H          0.49158        2.37544       -0.01159
H         -0.04015       -3.24961       -0.65511
H          1.31961       -3.30093       -1.82737
H          1.62147       -2.94869       -0.10746
H         -3.03436       -1.17305       -2.46771
H         -4.67454       -0.96917       -4.31241
H         -4.21792        0.55043       -6.22029
H         -2.07397        1.75950       -6.35489
H          0.00275        2.64303       -4.76854
H          0.80113        1.30168       -3.95636
H          3.08651        1.57154       -6.09229
H          5.38920        0.63452       -7.03279
H          5.65467        0.45854       -5.27463
H          5.92616       -0.90902       -6.37487
H          4.28341       -2.56246       -5.83938
H          1.92771       -3.23705       -5.75683
H         -0.30422       -2.65400       -6.58755
H         -0.66631       -1.91606       -5.01982
H         -0.89741       -1.01358       -6.55217
