30

N          1.00542        0.07606        0.06469
C          2.26639        0.07606        0.06469
C          3.78639        0.07606        0.06469
C          4.27736       -0.31626        1.39493
N          3.52324       -1.45447        1.90715
C          4.10093       -1.79870        3.21424
C          3.78640       -0.70843        4.21999
C          2.26640       -0.70843        4.22000
N          1.00543       -0.70843        4.22000
C          1.94984       -1.28135        1.91575
C          1.16308        0.39038        2.25985
C          1.15507        1.83655        1.69203
O          0.18370        2.56880        1.57541
O          2.39136        2.37736        1.54768
C          1.25967       -2.27971        0.88725
O          0.11093       -2.68634        0.91601
O          2.10813       -2.75423       -0.06495
H          4.12405       -0.62465       -0.70854
H          4.15334        1.06880       -0.21769
H          5.34031       -0.57772        1.30311
H          4.22752        0.56109        2.04282
H          3.70005       -2.76762        3.54163
H          5.18622       -1.94399        3.14015
H          4.14257       -1.00092        5.21371
H          4.19126        0.28168        4.00729
H          1.65118       -1.99113        2.69898
H          0.09186        0.16113        2.39189
H          1.64071        0.84018        3.13153
H          2.15697        3.31083        1.34528
H          1.52797       -3.33490       -0.59903
