14

N          2.42429        0.86616        0.20344
C          1.19996        0.20753        0.08179
C          1.14282       -1.16544        0.11842
C         -0.11243       -1.71098        0.01977
N         -1.22983       -0.97528       -0.10531
C         -1.06287        0.34910       -0.13487
N         -2.19793        1.12883       -0.23332
N          0.11135        0.97766       -0.02696
H          2.23856        1.86217        0.10765
H          3.09304        0.54503       -0.48727
H          2.02488       -1.77862        0.23222
H         -0.26269       -2.78584        0.04348
H         -2.01985        2.02991        0.18726
H         -2.98922        0.60561        0.11468
