48

C          1.27106       -0.64328        0.15124
N          0.29962       -0.09345       -0.76427
C          0.61770        0.05563       -2.16688
C          0.10844        1.32710       -2.84804
O          0.56457        1.61489       -3.95460
N         -0.98641        1.96279       -2.26204
C         -1.33056        1.66684       -0.83472
C         -2.79578        1.92955       -0.44158
C         -3.13508        3.29809       -0.86986
C         -2.64344        3.77663       -2.06295
N         -3.14233        5.04680       -2.22276
C         -3.71186        5.47130       -1.04021
C         -4.16868        6.73954       -0.66510
C         -4.64706        6.89439        0.63966
C         -4.68867        5.81792        1.52333
C         -4.25007        4.55002        1.12520
C         -3.74122        4.37543       -0.17621
C         -1.65707        3.09076       -2.98183
C         -0.72258        4.11332       -3.64040
C         -0.53574        4.06452       -5.04795
C          0.22750        5.02254       -5.72030
C          0.76495        6.04381       -4.97335
C          0.60829        6.10246       -3.60847
C         -0.09534        5.14131       -2.90955
O          1.18755        7.21069       -3.07150
C          1.67266        7.86692       -4.26216
O          1.47519        7.09448       -5.46318
C         -0.95388        0.27014       -0.31779
O         -1.51221       -0.27660        0.63084
H          0.78930       -1.06880        1.03532
H          1.89386        0.19730        0.47595
H          1.89197       -1.39344       -0.34089
H          1.70615        0.02168       -2.28366
H          0.17683       -0.79407       -2.70262
H         -0.69189        2.35330       -0.25762
H         -3.46142        1.21423       -0.94160
H         -2.94169        1.81138        0.63817
H         -2.95682        5.65131       -3.01216
H         -4.12603        7.58292       -1.34611
H         -4.98243        7.87403        0.97237
H         -5.05146        5.96501        2.53767
H         -4.26433        3.72344        1.82954
H         -2.24793        2.60457       -3.77012
H         -0.97365        3.24941       -5.62308
H          0.37988        4.96854       -6.79195
H         -0.20286        5.22203       -1.83223
H          1.14594        8.82269       -4.37517
H          2.74266        8.06828       -4.14322
