27

C          0.96468        0.02775       -0.23999
O          0.40512        0.61578       -1.41500
C          0.87456        1.88185       -1.63093
C         -0.06647        2.89896       -1.77003
C          0.35559        4.21782       -1.95747
C          1.72257        4.52002       -2.02554
C          2.12696        5.95738       -2.09427
O          1.30093        6.80168       -2.43836
C          3.52207        6.37292       -1.66035
C          3.61804        6.51713       -0.14830
C          3.74011        5.17777        0.51979
O          4.68719        4.41694        0.43448
O          2.62320        4.82491        1.18151
C          2.65586        3.47778       -1.97558
C          2.23204        2.16180       -1.77184
H          0.44106       -0.91479       -0.05478
H          0.81686        0.67381        0.63331
H          2.02672       -0.20291       -0.37015
H         -1.12736        2.67185       -1.70607
H         -0.38740        5.01066       -2.02611
H          4.28178        5.70474       -2.07331
H          3.71323        7.35117       -2.12063
H          4.51242        7.08952        0.12312
H          2.75794        7.05873        0.26090
H          2.78990        3.91044        1.49202
H          3.72262        3.65493       -2.07402
H          2.97168        1.36737       -1.73268
