15

N          1.77624       -1.40838        0.08003
C          0.54781       -0.72298       -0.02026
C         -0.66597       -1.40469        0.06999
C         -1.87507       -0.70189        0.02416
C         -1.87738        0.69141       -0.06965
C         -0.67134        1.38858       -0.08633
C          0.52119        0.67823       -0.02915
O          1.69318        1.37838        0.06785
H          2.47137       -1.00219       -0.54438
H          1.67530       -2.40148       -0.11600
H         -0.68703       -2.48701        0.15802
H         -2.81710       -1.24271        0.06895
H         -2.81843        1.23410       -0.10180
H         -0.65979        2.47362       -0.11228
H          2.30428        0.75763        0.50758
