23

N          1.00825       -0.08907        0.04469
C          2.26922       -0.08907        0.04469
C          3.78922       -0.08907        0.04469
C          4.32291       -1.21611        0.89548
O          4.69382       -2.25860        0.34981
N          4.43526       -1.02101        2.26858
C          4.96971       -2.10822        3.08821
C          3.83951       -2.80112        3.84637
C          3.02680       -1.79149        4.66115
C          2.55983       -0.61850        3.79473
C          3.73082        0.00817        3.03639
H          4.14609       -0.22848       -0.98224
H          4.18159        0.87352        0.38531
H          5.68838       -1.66972        3.79102
H          5.51540       -2.83524        2.47862
H          4.25062       -3.56998        4.50954
H          3.17556       -3.30539        3.13340
H          2.16104       -2.28908        5.11195
H          3.64336       -1.41018        5.48445
H          1.81058       -0.98056        3.08015
H          2.07312        0.13644        4.42165
H          3.36832        0.81639        2.39958
H          4.44931        0.44605        3.73938
