22

Cl        -2.10430        0.00252       -0.05960
C         -0.38448        0.00051       -0.02984
C          0.30343       -1.19598        0.15384
C          1.70101       -1.19631        0.18374
C          2.42511       -0.00262        0.02034
C          3.90240       -0.00415        0.05104
C          4.60217        0.47751        1.17742
Cl         3.78282        1.07872        2.58149
C          5.99768        0.47986        1.21930
C          6.73266       -0.00717        0.14028
Cl         8.45660        0.02836        0.28504
C          6.07837       -0.49749       -0.99671
Cl         7.00737       -1.10972       -2.33297
C          4.66803       -0.48941       -1.04079
Cl         3.84709       -1.06848       -2.46903
C          1.71017        1.19285       -0.16832
C          0.31234        1.19529       -0.18879
H         -0.23877       -2.13014        0.27368
H          2.22204       -2.14095        0.32913
H          6.51308        0.85912        2.10001
H          2.23821        2.13623       -0.29437
H         -0.22332        2.13065       -0.32808
