24

O          0.14191       -0.19427       -0.21767
C          0.40331        0.80502       -1.19495
C          1.05479        2.04219       -0.57872
C          2.59406        2.06493       -0.69419
C          3.26328        0.86770       -0.00045
C          4.78617        0.97651       -0.02815
C          5.23887        2.32550        0.51461
C          4.52610        3.46739       -0.20184
N          3.07339        3.32815       -0.10892
H          0.93568       -0.31399        0.32854
H          1.00779        0.37192       -1.99781
H         -0.56674        1.07894       -1.62231
H          0.66803        2.92123       -1.11174
H          0.75325        2.14127        0.47195
H          2.85621        2.04984       -1.76087
H          2.97806       -0.06814       -0.49350
H          2.92579        0.80124        1.04192
H          5.23063        0.16610        0.56001
H          5.14188        0.85862       -1.05918
H          5.02946        2.37617        1.59071
H          6.32299        2.42934        0.39432
H          4.82029        4.41731        0.25771
H          4.83494        3.51065       -1.25332
H          2.63181        4.11720       -0.58132
