34

C          1.04715        0.07929       -0.15367
C          0.85358       -1.41133        0.07407
C          1.34294       -1.88936        1.44314
C          0.68374       -1.24320        2.67017
C         -0.85428       -1.22453        2.71259
C         -1.60698       -2.47643        3.25966
C         -1.80201       -2.43214        4.80386
C         -0.57069       -2.16094        5.65845
C         -0.93320       -3.78006        2.84511
O         -0.19467       -4.43915        3.57195
N         -1.15891       -4.18954        1.55961
C         -2.29624       -3.92221        0.86688
O         -2.64707       -4.61807       -0.08012
N         -3.08145       -2.91987        1.33914
C         -2.99961       -2.43319        2.61523
O         -3.99377       -1.94157        3.14356
H          0.45149        0.67481        0.54403
H          0.73582        0.34701       -1.16839
H          2.09882        0.35928       -0.03794
H         -0.19938       -1.67295       -0.07198
H          1.41020       -1.95551       -0.69857
H          1.23626       -2.97673        1.49202
H          2.42338       -1.70429        1.50855
H          1.08952       -1.71972        3.56758
H          1.02560       -0.20071        2.71619
H         -1.14636       -0.37267        3.34438
H         -1.23308       -0.94689        1.72264
H         -2.53724       -1.65959        5.06422
H         -2.24425       -3.38258        5.13259
H         -0.18029       -1.15372        5.48824
H         -0.83910       -2.22671        6.71853
H          0.22727       -2.88489        5.47941
H         -0.69426       -5.04680        1.29041
H         -3.99698       -2.86585        0.91268
