24

C          2.52300        1.07461       -0.02527
C          1.22037        0.33176       -0.02090
C          1.18532       -1.05954        0.06408
C         -0.03735       -1.73214        0.09270
C         -1.25544       -1.03192        0.03320
C         -2.54317       -1.82488        0.08644
C         -3.34558       -1.61195        1.34259
O         -4.51453       -1.25953        1.39331
O         -2.67503       -1.89981        2.47495
C         -1.22899        0.37359       -0.07245
C         -2.47212        1.22149       -0.11408
C          0.01235        1.03678       -0.08221
H          2.58951        1.71717       -0.90914
H          2.60693        1.69109        0.87547
H          3.37656        0.38908       -0.04673
H          2.10754       -1.63327        0.11668
H         -0.03102       -2.81765        0.17187
H         -3.16206       -1.56762       -0.78105
H         -2.35003       -2.90134        0.00037
H         -3.31457       -1.70219        3.18987
H         -2.68241        1.62150        0.88288
H         -2.33894        2.05764       -0.80950
H         -3.34697        0.66770       -0.46251
H          0.03679        2.12448       -0.13677
