19

O          2.28251       -0.04811        0.14256
C          0.93995       -0.03172       -0.32989
C          0.26249        1.24275        0.16925
C         -1.21542        1.27836       -0.20550
C         -1.94736        0.02849        0.27717
C         -1.27052       -1.24843       -0.21502
C          0.20765       -1.28055        0.15914
H          2.69989       -0.86114       -0.18980
H          0.97134       -0.02281       -1.42599
H          0.37255        1.31805        1.25905
H          0.77596        2.12062       -0.24118
H         -1.31337        1.36031       -1.29499
H         -1.68438        2.17000        0.22548
H         -2.98639        0.05246       -0.07015
H         -1.97684        0.02499        1.37378
H         -1.37203       -1.31778       -1.30507
H         -1.77799       -2.12198        0.20936
H          0.68103       -2.17684       -0.25942
H          0.31548       -1.36944        1.24805
