12

C          0.90707        0.18086       -0.23250
O          0.44877        1.18005        0.66745
C          1.02952        1.09515        1.97144
C          0.44251       -0.02398        2.82835
Cl         1.34795       -1.55155        2.64001
H          0.58256        0.45753       -1.23961
H          0.45972       -0.78628        0.00861
H          1.99911        0.11415       -0.22745
H          2.12318        1.05400        1.90599
H          0.78181        2.04673        2.45536
H          0.51351        0.23781        3.88775
H         -0.60253       -0.22229        2.57457
