24

N         -1.82275       -2.08779       -0.15594
C         -1.35259       -0.76470       -0.00659
C         -2.29458        0.27239       -0.06894
C         -1.89810        1.60544       -0.02381
C         -0.54525        1.92334        0.03716
C          0.42812        0.91516        0.03030
C          1.78850        1.25878        0.05095
C          2.76760        0.26405        0.01883
S          4.46455        0.75425        0.04657
O          4.75734        1.41667       -1.20497
O          4.72179        1.39230        1.31838
O          5.32403       -0.61212        0.04648
C          2.41388       -1.07911       -0.03732
C          1.06032       -1.42716       -0.05655
C          0.03564       -0.45011       -0.01311
H         -1.22236       -2.78115        0.27538
H         -2.78836       -2.20397        0.13616
H         -3.35477        0.04435       -0.14452
H         -2.64326        2.39608       -0.04866
H         -0.25622        2.97216        0.06625
H          2.09060        2.30454        0.08455
H          6.27263       -0.36755        0.05414
H          3.16777       -1.86118       -0.07049
H          0.81176       -2.48346       -0.11643
