61

C          1.65018       -0.26837       -0.46504
C          1.16336       -0.76869        0.87335
O          0.02942       -0.59721        1.27605
O          2.16782       -1.43923        1.52397
C          1.91107       -1.93004        2.85201
C          1.11558       -1.15114        3.98259
O          0.02225       -1.68999        4.19376
C          1.68133        0.26257        4.75507
O          2.10346        0.39641        3.13787
C          2.92247        0.96288        5.10683
C          2.22081        2.17305        4.38740
C          0.46803        1.53597        4.08262
C         -0.99052        0.87304        4.76868
C         -1.22685       -0.28957        5.78640
C         -2.52898       -1.03372        5.62130
C         -3.14735       -0.85639        4.26860
C         -3.52803       -1.97477        3.62604
C         -4.30103       -1.91238        2.37474
O         -4.58051       -2.94974        1.77906
C         -4.82894       -0.56375        1.96596
C         -3.77909        0.50643        2.24478
C         -3.33287        0.59181        3.74149
C         -4.44366        1.25709        4.56361
C         -1.97663        1.38527        3.76810
C         -1.73157        2.95418        4.09398
O         -2.78167        3.54594        4.84557
C         -0.26307        3.23158        4.98998
C          0.72606        1.78334        5.43961
C          0.58119        1.68665        6.94609
H          1.22695        0.72209       -0.66396
H          1.34551       -0.96236       -1.25186
H          2.73878       -0.16220       -0.47159
H          1.38984       -2.88754        2.70923
H          2.87840       -2.18893        3.29145
H          3.02887        0.09362        3.04527
H          3.04138        1.08522        6.18872
H          3.86538        0.62223        4.67819
H          2.32155        3.11455        4.96047
H          2.69309        2.40508        3.41940
H          0.27483        2.17642        3.20723
H         -1.36840        1.53815        5.56309
H         -0.37920       -0.94244        5.99605
H         -1.32169        0.12098        6.80473
H         -2.35391       -2.09033        5.86451
H         -3.24160       -0.68217        6.37919
H         -3.35222       -2.97021        4.02069
H         -5.04531       -0.59402        0.89360
H         -5.76204       -0.37606        2.50516
H         -2.91183        0.25716        1.61553
H         -4.14022        1.48151        1.90045
H         -4.13569        1.42351        5.60130
H         -4.73394        2.21911        4.12981
H         -5.34854        0.63993        4.59671
H         -1.51982        1.21638        2.78344
H         -1.66339        3.50654        3.14926
H         -2.72401        3.20607        5.75422
H          0.34327        3.93902        4.39849
H         -0.51781        3.77718        5.90701
H         -0.41663        1.94236        7.32230
H          0.88817        0.72493        7.35706
H          1.23318        2.44898        7.39443
