12

O          1.27870        0.07107        0.79140
C          2.35654        0.03703        0.20921
N          2.94119       -1.14523       -0.12799
C          4.05278       -1.32043       -0.91349
O          4.41304       -2.41388       -1.31866
C          4.78985       -0.04220       -1.26521
O          5.90531       -0.07581       -1.75771
C          4.11415        1.27921       -0.95188
O          4.52520        2.34201       -1.38902
N          2.99616        1.17991       -0.16218
H          2.42418       -1.98226        0.10738
H          2.51938        2.04699        0.04806
