36

C          1.22833        0.11435        0.14258
O          0.39792        1.07784       -0.49255
C          0.73455        2.37080       -0.14315
N          2.01459        2.66952        0.19693
C          2.32493        3.94453        0.48047
N          3.64092        4.19485        0.80759
N          1.50190        5.00672        0.42709
C          0.24538        4.65794        0.10150
C         -0.21738        3.38837       -0.20332
N         -1.55889        3.42186       -0.51551
C         -1.90348        4.68595       -0.39864
N         -0.84035        5.47791       -0.04945
C         -0.89527        6.91129        0.10634
O         -0.52607        7.27617        1.44716
C         -0.28859        8.69624        1.39941
C          0.53560        9.15186        2.59886
O          0.89526       10.52356        2.47943
C          0.32657        8.99014        0.02481
O          1.74443        9.18833        0.09146
C         -0.02212        7.76599       -0.82950
O          1.20013        7.17497       -1.29071
H          0.85183       -0.87748       -0.12629
H          1.17437        0.20913        1.23269
H          2.26450        0.18042       -0.20569
H          3.89577        5.15044        0.60694
H          4.23588        3.46693        0.43564
H         -2.90106        5.07518       -0.55920
H         -1.94445        7.21477       -0.01247
H         -1.27269        9.18295        1.44049
H         -0.04571        9.02646        3.51857
H          1.44293        8.54980        2.71949
H          1.56687       10.55338        1.76683
H         -0.10454        9.90586       -0.39285
H          2.11045        8.73899       -0.70079
H         -0.59340        8.04590       -1.72051
H          1.55251        6.61631       -0.56103
