57

C          1.78085       -1.57238        0.24848
N          0.92898       -2.24691       -0.71281
C         -0.39718       -2.61581       -0.26139
C          1.04548       -1.78017       -2.09869
C          0.19891       -0.57651       -2.58725
O          0.80289        0.69575       -2.33952
C          0.56429        1.32918       -1.15504
C          1.44603        2.37209       -0.86087
C          1.39104        3.02965        0.37290
C          0.42544        2.67553        1.32190
C          0.31153        3.34267        2.65672
C          0.06012        4.68340        2.75856
C         -0.16030        5.44809        4.06434
C          1.05416        6.21072        4.59664
Cl         0.87250        7.97411        4.38578
C         -0.12387        5.52812        1.54662
C          0.82190        6.50065        1.19502
C          0.67429        7.24643        0.02364
C         -0.40826        7.01295       -0.82080
C         -1.35463        6.04724       -0.48563
C         -1.22173        5.31993        0.69850
C          0.40358        2.50126        3.88493
C         -0.73184        2.23378        4.66518
C         -0.64321        1.41823        5.79440
C          0.57446        0.83366        6.13615
C          1.70173        1.06152        5.34768
C          1.61802        1.89131        4.22624
C         -0.47735        1.65185        1.00498
C         -0.42085        1.00012       -0.22998
H          1.39886       -1.63216        1.27360
H          1.95363       -0.52059        0.02386
H          2.76267       -2.05825        0.25376
H         -1.18903       -1.95876       -0.62558
H         -0.62812       -3.62811       -0.60951
H         -0.47807       -2.63886        0.83122
H          2.10200       -1.57996       -2.31901
H          0.77064       -2.63553       -2.72934
H          0.16937       -0.65235       -3.68258
H         -0.85397       -0.61999       -2.29599
H          2.19867        2.66164       -1.58997
H          2.10271        3.82503        0.57687
H         -1.03423        6.10480        3.95619
H         -0.46040        4.76022        4.85906
H          1.15290        6.04915        5.67465
H          1.99175        5.90456        4.12396
H          1.69792        6.67492        1.81237
H          1.41418        7.99948       -0.23505
H         -0.50978        7.57708       -1.74376
H         -2.18939        5.84837       -1.15197
H         -1.96114        4.55877        0.93625
H         -1.69296        2.66714        4.39704
H         -1.52533        1.23462        6.40229
H          0.64237        0.19192        7.01101
H          2.64593        0.58641        5.60242
H          2.50235        2.04653        3.61241
H         -1.23748        1.34866        1.72086
H         -1.15125        0.22566       -0.41753
