26

C          0.97929       -0.09661        0.07357
C          0.50185        1.29159        0.38992
C         -0.60083        1.51419        1.11769
C         -1.16017        2.85478        1.46934
C         -0.38325        4.06228        0.99425
C         -0.79814        5.32409        1.28901
C         -2.04124        5.64854        2.08123
C         -0.03436        6.54984        0.84527
C          0.88291        3.84253        0.18731
C          1.32542        2.41369       -0.16035
H          0.85429       -0.30443       -0.99398
H          0.42806       -0.85923        0.63378
H          2.03888       -0.20483        0.32717
H         -1.17156        0.66661        1.49196
H         -1.24003        2.89121        2.56314
H         -2.17530        2.89926        1.05493
H         -1.77399        6.20836        2.98388
H         -2.71728        6.26504        1.47897
H         -2.60513        4.76888        2.39977
H          0.97119        6.55907        1.27793
H          0.03706        6.59309       -0.24603
H         -0.53195        7.47013        1.17048
H          0.78720        4.38641       -0.76235
H          1.71634        4.31598        0.72423
H          1.35888        2.31661       -1.25350
H          2.36106        2.28661        0.18265
