33

C          0.53579        0.00034       -0.30402
C          0.39036       -1.44356        0.17284
O          0.91497       -1.67664        1.48788
C          2.26727       -1.85727        1.56198
C          2.74224       -3.04380        2.12014
C          4.11044       -3.19941        2.38123
C          5.00774       -2.16822        2.08780
O          6.31983       -2.38130        2.46899
C          7.21602       -1.35116        2.29498
C          8.16090       -1.50810        1.27683
C          9.06368       -0.48006        1.00208
C          9.02119        0.69701        1.74936
Cl        10.09933        1.98358        1.37156
C          8.11483        0.84155        2.79857
C          7.22800       -0.19648        3.09220
Cl         6.15701        0.00617        4.43129
C          4.52849       -1.00239        1.48682
C          3.16182       -0.83492        1.26484
C         -1.10209       -1.74271        0.22182
O         -1.72715       -2.41348       -0.59201
O         -1.75550       -1.12132        1.22614
H          0.46940        0.70305        0.53411
H         -0.22624        0.26971       -1.04275
H          1.50521        0.15082       -0.78911
H          0.83545       -2.14597       -0.54409
H          2.04896       -3.83643        2.38934
H          4.46910       -4.11442        2.84654
H          8.18046       -2.42271        0.68940
H          9.78813       -0.59832        0.20004
H          8.09654        1.75884        3.38121
H          5.18177       -0.17468        1.23248
H          2.82104        0.13333        0.92058
H         -2.69309       -1.37784        1.11038
