30

C          0.92845       -0.43902        0.06151
C          0.45757       -1.07231       -1.21953
O         -0.27660       -2.06329       -1.19487
N          0.76998       -0.51477       -2.42582
C          1.68524        0.49101       -2.77611
C          2.84928        0.77078       -2.03752
C          3.72454        1.79738       -2.41779
C          3.42110        2.54031       -3.54293
C          2.27445        2.23930       -4.30481
C          1.41846        1.20780       -3.94987
C          2.14983        3.20132       -5.46933
C          3.35837        4.09298       -5.26917
C          3.75235        5.18421       -6.02500
C          4.91022        5.86318       -5.64007
C          5.65144        5.44572       -4.52118
C          5.24497        4.34425       -3.76143
C          4.09391        3.67395       -4.13909
H          0.19765       -0.65426        0.84804
H          0.98329        0.64888       -0.02691
H          1.89151       -0.85811        0.35899
H          0.19056       -0.88623       -3.17017
H          3.12801        0.17177       -1.17750
H          4.61688        1.99819       -1.83425
H          0.53635        1.00460       -4.54869
H          1.22550        3.78134       -5.39176
H          2.21340        2.66813       -6.42213
H          3.17962        5.50909       -6.88711
H          5.24343        6.72709       -6.21067
H          6.55040        5.98984       -4.24069
H          5.82083        4.03400       -2.89637
