33

C          0.13131        0.71478        1.16918
C          0.44798       -0.67090        0.64634
O          1.81722       -0.69538        0.28054
P          2.34406       -1.65946       -0.91482
S          1.42454       -3.37873       -1.03664
O          2.17316       -0.70468       -2.20602
C          1.00629       -0.02620       -2.61065
C          0.09962       -0.90841       -3.44089
S          4.43760       -1.76372       -0.63315
C          5.14239       -0.42312       -1.63614
C          5.75861       -0.87291       -2.96588
S          4.61058       -1.07095       -4.37618
C          3.93474       -2.72907       -4.04799
C          4.06065       -3.62004       -5.26797
H          0.55628        0.84722        2.16920
H         -0.94860        0.87412        1.22589
H          0.57416        1.48607        0.52981
H          0.26479       -1.42319        1.41990
H         -0.19277       -0.90019       -0.20927
H          0.48126        0.41603       -1.76564
H          1.33707        0.81208       -3.23309
H         -0.35047       -1.69648       -2.83315
H         -0.71145       -0.31988       -3.87931
H          0.65914       -1.39475       -4.24606
H          4.41749        0.38509       -1.77228
H          5.95051       -0.00362       -1.02541
H          6.44217       -0.07693       -3.28537
H          6.37446       -1.77148       -2.85438
H          4.43950       -3.20282       -3.20398
H          2.87604       -2.61956       -3.80590
H          5.10887       -3.78952       -5.53236
H          3.60851       -4.59516       -5.05557
H          3.53954       -3.19722       -6.13312
