20

O          0.94709       -0.08665        0.02024
N          2.17310        0.07655       -0.03670
O          2.84315        0.77855        0.73156
C          2.87444       -0.58447       -1.12333
C          2.46298       -0.25954       -2.42161
C          3.10674       -0.85591       -3.49414
C          4.14174       -1.76333       -3.24976
O          4.76897       -2.34454       -4.32901
C          4.56649       -2.11127       -1.95355
N          5.56809       -3.00308       -1.78328
C          5.95737       -3.33457       -0.53617
C          5.38461       -2.81376        0.60056
C          4.35472       -1.89607        0.44087
C          3.91690       -1.51067       -0.85198
H          1.65474        0.44798       -2.59551
H          2.79923       -0.61151       -4.50678
H          4.37803       -2.02368       -5.15565
H          6.76812       -4.05530       -0.48129
H          5.72861       -3.11013        1.58494
H          3.90116       -1.48375        1.34021
