24

C          1.15988        0.03296        0.02731
C          0.71134       -0.43728        1.38156
O          0.10030        0.29484        2.15710
N          0.96750       -1.72596        1.73829
C          1.82530       -2.70959        1.06219
C          3.05960       -2.93129        1.95435
O          3.55574       -3.99538        2.29020
O          3.67017       -1.77556        2.29893
C          1.04580       -4.01061        0.76069
C         -0.28045       -3.71713        0.04320
C          1.86088       -4.96778       -0.12015
H          0.76264        1.03557       -0.15712
H          0.77638       -0.63258       -0.75058
H          2.25096        0.07675       -0.01083
H          0.66880       -1.93432        2.68447
H          2.19757       -2.29172        0.12092
H          4.44922       -2.05811        2.82276
H          0.81470       -4.52243        1.70386
H         -0.11093       -3.16834       -0.88991
H         -0.80410       -4.64697       -0.20352
H         -0.95463       -3.12464        0.66958
H          2.77741       -5.30086        0.37278
H          1.27983       -5.86639       -0.35493
H          2.14110       -4.49230       -1.06647
