46

C          1.37599       -0.74198       -0.87376
N          0.66279        0.08361       -1.83745
C         -0.77730       -0.12984       -1.85123
C          1.06885        1.49550       -1.83855
C          0.55595        2.43925       -0.72806
O          1.16238        2.19259        0.55272
C          0.45490        1.41710        1.41417
O         -0.64436        0.93064        1.16374
C          1.11475        1.24837        2.77280
C          2.64138        1.09816        2.72074
C          3.21206       -0.17447        2.91160
C          4.59791       -0.35642        2.89642
C          5.44193        0.73035        2.69284
C          4.89860        1.99264        2.47775
C          3.51175        2.17106        2.47562
C          0.54161        2.24231        3.82689
O          0.92293        1.75081        5.12706
C         -0.99597        2.35971        3.81239
C         -1.31354        3.63511        4.58725
C         -0.07047        4.51086        4.48215
C          0.96563        3.70783        3.69456
H          0.72611       -1.45736       -0.35736
H          1.90481       -0.16806       -0.10990
H          2.13717       -1.32294       -1.40505
H         -1.30368        0.34443       -1.02182
H         -1.20471        0.25944       -2.78147
H         -1.01935       -1.19861       -1.82494
H          2.16523        1.54042       -1.85852
H          0.74043        1.91941       -2.79654
H          0.85161        3.46053       -0.99785
H         -0.53791        2.46018       -0.66812
H          0.75839        0.25754        3.09989
H          2.57948       -1.04306        3.08527
H          5.01708       -1.34695        3.05308
H          6.51989        0.59380        2.69790
H          5.55403        2.84355        2.31039
H          3.13287        3.16706        2.27021
H          0.61222        2.36766        5.80994
H         -1.39338        2.49638        2.80275
H         -1.48920        1.49296        4.26422
H         -1.53048        3.40638        5.63616
H         -2.19500        4.13702        4.17383
H          0.30533        4.74539        5.48447
H         -0.28510        5.46284        3.98560
H          1.96006        3.89977        4.10924
H          0.94497        4.03277        2.64848
