46

C          0.91583        0.04913       -0.02239
C         -0.38803        0.04913       -0.02239
C         -1.90803        0.04913       -0.02239
O         -2.41959       -0.17980        1.30970
C         -2.12636       -1.38868        1.85251
O         -1.51621       -2.29305        1.29964
C         -2.75505       -1.61281        3.17725
C         -1.95546       -1.63793        4.46387
C         -0.54186       -1.22634        4.54952
C          0.31374       -1.47968        5.56264
C          1.72552       -0.95995        5.55442
C         -0.06466       -2.29397        6.76934
C         -3.03991       -0.58536        4.26193
C         -2.68450        0.86685        4.06434
C         -4.32890       -0.76451        5.03248
C         -2.39998        1.42140       -0.46900
C         -3.29596        1.43094       -1.68062
C         -2.10590        2.60702        0.11631
C         -1.25116        2.85205        1.33022
C         -0.02150        3.68617        1.00488
H          1.98094        0.04146       -0.02028
H         -2.27723       -0.74196       -0.68510
H         -3.48848       -2.41354        3.09263
H         -2.19404       -2.47759        5.11374
H         -0.15248       -0.65091        3.70971
H          1.91084       -0.35788        6.45099
H          2.43717       -1.79180        5.54319
H          1.93185       -0.32697        4.68545
H         -0.90049       -1.83421        7.30581
H         -0.33884       -3.31273        6.47578
H          0.77109       -2.37656        7.47299
H         -1.69443        1.01154        3.63132
H         -3.41699        1.34925        3.40858
H         -2.69360        1.39574        5.02379
H         -5.18286       -0.49334        4.40317
H         -4.46875       -1.79879        5.36478
H         -4.34083       -0.12749        5.92316
H         -4.28126        1.83446       -1.42376
H         -2.85798        2.04480       -2.47521
H         -3.44988        0.42892       -2.09174
H         -2.53339        3.51316       -0.31362
H         -1.85393        3.37542        2.08142
H         -0.92049        1.92142        1.79325
H         -0.30061        4.68123        0.64426
H          0.59378        3.81253        1.90216
H          0.59591        3.20502        0.23936
