21

C         -0.03368       -0.39017        0.09667
C          0.56531       -0.40240       -1.29578
C          1.37180       -1.65507       -1.59129
O          0.79401       -2.73025       -1.77937
N          2.71465       -1.58758       -1.80374
C          3.60277       -0.61946       -1.43223
N          4.68666       -0.34666       -2.11844
C          5.40892        0.65113       -1.47030
C          6.59377        1.22201       -2.15674
C          4.90831        0.97976       -0.23064
Cl         5.52450        2.08670        0.92317
S          3.48128        0.12998        0.09650
H         -0.40799       -1.37588        0.38759
H         -0.86415        0.32201        0.13960
H          0.69757       -0.07964        0.84671
H         -0.25225       -0.39896       -2.02930
H          1.12829        0.51168       -1.50204
H          3.09335       -2.32053       -2.38822
H          7.43201        0.52125       -2.11735
H          6.35659        1.42181       -3.20697
H          6.90841        2.16773       -1.70553
