17

C          1.07640        0.02060       -0.09537
O          0.62971       -1.31473       -0.29005
C          1.48261       -2.31867        0.08005
C          0.98522       -3.60895       -0.13111
C          1.75228       -4.73059        0.18898
C          3.02756       -4.56543        0.72217
C          3.52034       -3.28324        0.93364
O          4.77765       -3.17047        1.45353
C          2.75924       -2.15560        0.62249
H          1.17624        0.24530        0.97153
H          0.31719        0.69058       -0.51040
H          2.01247        0.21325       -0.62985
H         -0.00948       -3.74000       -0.55076
H          1.35631       -5.72789        0.01982
H          3.63512       -5.43099        0.97037
H          5.00585       -2.22943        1.52115
H          3.17004       -1.17080        0.80391
