24

C          1.01962        0.18018       -0.04091
C          0.54716       -0.50480       -1.31813
C          1.04909       -1.96026       -1.49102
C          0.63349       -2.82147       -0.28934
C          0.56591       -2.57692       -2.85055
C          1.00989       -1.72775       -4.05131
C          1.07132       -4.01611       -3.07143
O          0.30098       -4.93946       -2.31375
H          0.52500       -0.22863        0.84462
H          0.78044        1.24810       -0.07986
H          2.10259        0.08082        0.08243
H         -0.54855       -0.48004       -1.35487
H          0.90870        0.10931       -2.14919
H          2.14729       -1.93084       -1.50617
H         -0.45235       -2.95974       -0.25981
H          1.11069       -3.80485       -0.31901
H          0.94512       -2.37671        0.65974
H         -0.53233       -2.59855       -2.83868
H          2.09245       -1.56312       -4.04141
H          0.75097       -2.21781       -4.99653
H          0.50986       -0.75513       -4.06458
H          0.97042       -4.31020       -4.12151
H          2.12506       -4.11121       -2.78816
H          0.70301       -5.81627       -2.43815
