18

O          0.99910        0.13135        0.27453
C          2.19713        0.10574        0.05565
O          3.01949       -0.86894        0.49574
C          2.90472        1.18157       -0.67237
C          2.50591        2.50775       -0.44937
C          3.14981        3.53178       -1.13131
O          2.74407        4.81994       -0.94297
C          4.18982        3.25046       -2.00871
O          4.88188        4.25137       -2.63177
C          4.55952        1.93178       -2.24674
O          5.56737        1.64810       -3.12128
C          3.92094        0.88644       -1.59258
H          3.97189       -0.68731        0.38527
H          1.69568        2.73171        0.24096
H          2.44481        5.14068       -1.81478
H          4.72815        5.05508       -2.09768
H          5.85638        2.51585       -3.47009
H          4.20501       -0.13716       -1.81927
