38

C          1.29759       -0.24933       -0.06881
C          0.89974        0.39691       -1.40623
C          1.20383       -0.67604       -2.49488
C         -0.65255        0.63915       -1.46360
C         -1.43256        1.34759       -0.32449
C         -1.64800        2.89511       -0.31581
C         -2.03406        3.41115       -1.71802
C         -2.84145        3.21958        0.61990
C         -0.43247        3.69858        0.18345
C          0.14137        3.27356        1.50508
O          1.09145        2.52263        1.66449
O         -0.48039        3.80760        2.56547
C          1.71089        1.66015       -1.83204
C          2.81186        2.19907       -0.92964
O          3.66117        1.52399       -0.37081
O          2.87518        3.55456       -0.92213
H          0.81321       -1.22664        0.04912
H          1.00886        0.34763        0.79349
H          2.37293       -0.43806       -0.00518
H          0.65965       -1.60864       -2.30693
H          0.91272       -0.32119       -3.49057
H          2.27291       -0.91763       -2.52050
H         -0.91743        1.07510       -2.43294
H         -1.10188       -0.36654       -1.49677
H         -2.44645        0.92050       -0.39716
H         -1.07918        1.00635        0.65350
H         -2.95425        2.93507       -2.07582
H         -2.20739        4.49380       -1.70519
H         -1.24871        3.22598       -2.45617
H         -2.70030        2.79472        1.61881
H         -2.97147        4.30332        0.73097
H         -3.78163        2.81947        0.22423
H          0.36879        3.65821       -0.54755
H         -0.66976        4.76823        0.25585
H          0.01621        3.43686        3.32692
H          2.23351        1.47111       -2.78107
H          1.01417        2.46225       -2.08578
H          2.22528        3.99774       -1.49553
