66

C          1.69294       -0.17012        0.37186
C          1.26617       -1.02134        1.58231
C          0.91606        0.05101        2.64883
C         -0.00289       -1.89512        1.57346
C          0.02690       -3.01788        0.56409
C          1.22606       -3.91985        0.82419
C          2.54783       -3.11751        0.97807
C          3.59623       -4.02633        1.66040
C          3.14353       -2.83341       -0.42532
N          2.39173       -1.93284        1.88448
O          0.06542       -2.43051       -0.74050
C         -1.21406       -2.51555       -1.37240
C         -0.98146       -3.44600       -2.58197
C         -0.05291       -2.81115       -3.61200
C         -0.00245       -3.55750       -4.93421
C          0.70729       -2.75912       -6.04240
C          0.08790       -1.37616       -6.31536
C          0.68975       -0.24568       -5.45565
C         -0.38444        0.75987       -5.01439
C         -0.00592        1.55568       -3.75840
C         -0.96169        1.28948       -2.57525
C         -0.65428       -0.01552       -1.83415
C         -1.74789       -1.09589       -1.76301
N         -2.05890       -3.16387       -0.42269
C         -1.31304       -3.71912        0.58676
O         -1.72362       -4.55540        1.38181
H          1.13909        0.77096        0.30202
H          1.61197       -0.66954       -0.58372
H          2.74400        0.13643        0.46544
H         -0.01464        0.56048        2.33546
H          0.71196       -0.37247        3.63492
H          1.67018        0.83739        2.73384
H         -0.10487       -2.35897        2.57189
H         -0.90714       -1.28775        1.44801
H          1.04787       -4.51282        1.73174
H          1.32540       -4.64456        0.00351
H          3.70923       -4.97193        1.11517
H          4.58224       -3.54467        1.68241
H          3.31747       -4.27071        2.69025
H          3.38255       -3.77690       -0.93545
H          2.46901       -2.32083       -1.10776
H          4.07130       -2.25539       -0.36518
H          3.26711       -1.40991        1.91533
H         -1.94350       -3.70324       -3.03782
H         -0.52190       -4.38602       -2.24504
H          0.96002       -2.70275       -3.20490
H         -0.43987       -1.81768       -3.81090
H         -1.02456       -3.78314       -5.26103
H          0.50590       -4.51838       -4.79329
H          0.63180       -3.35383       -6.96077
H          1.77509       -2.66247       -5.81560
H         -0.99915       -1.44288       -6.18390
H          0.24885       -1.11955       -7.36918
H          1.21558       -0.64944       -4.58505
H          1.45630        0.27885       -6.04040
H         -0.55365        1.46162       -5.84057
H         -1.33919        0.25099       -4.84496
H         -0.06387        2.62473       -4.00017
H          1.03500        1.37502       -3.45973
H         -2.00723        1.34102       -2.89274
H         -0.81111        2.11475       -1.86495
H         -0.48821        0.26921       -0.79445
H          0.27897       -0.43122       -2.22063
H         -2.31282       -1.15011       -2.70005
H         -2.47390       -0.76272       -1.00804
H         -2.98098       -3.52302       -0.62703
