20

C         -0.74111        1.39085       -0.41891
C         -1.70687        0.31938        0.08365
C         -1.24257       -1.12137       -0.11247
C          0.13651       -1.45019        0.45798
N          1.19308       -0.89158       -0.37392
C          1.61885        0.45592       -0.01239
C          0.53881        1.45330        0.40985
H         -0.51701        1.24779       -1.48225
H         -1.24944        2.35945       -0.33263
H         -2.66539        0.44328       -0.43561
H         -1.91415        0.48740        1.14810
H         -1.97975       -1.78221        0.36103
H         -1.26554       -1.36488       -1.18297
H          0.22973       -1.15829        1.51047
H          0.24403       -2.54170        0.43519
H          2.00799       -1.50481       -0.35302
H          2.15085        0.86738       -0.87857
H          2.35954        0.39371        0.79464
H          0.96492        2.46071        0.32025
H          0.30263        1.31962        1.47293
