30

O          0.94093        0.14548       -0.33265
C          2.14322        0.04551       -0.14732
O          2.83706        0.82769        0.70634
C          2.99600       -0.90286       -0.89872
C          3.99584       -1.61617       -0.21410
C          4.83353       -2.48427       -0.91068
C          4.68049       -2.63466       -2.28496
C          3.67473       -1.93758       -2.96062
C          2.77862       -1.09702       -2.27853
N          1.80952       -0.33715       -2.98906
C          1.26904       -0.62531       -4.26172
C          1.04716        0.43008       -5.15114
C          0.50631        0.19496       -6.41532
C          0.14618       -1.09898       -6.78814
C          0.29928       -2.16511       -5.88923
C         -0.09704       -3.56023       -6.29966
F         -1.38279       -3.63211       -6.74311
F          0.67454       -4.03788       -7.31622
F          0.00322       -4.47706       -5.29695
C          0.84436       -1.91076       -4.61984
H          3.80633        0.78003        0.59788
H          4.11705       -1.51338        0.86187
H          5.60918       -3.03836       -0.38727
H          5.34384       -3.29387       -2.84055
H          3.60351       -2.05626       -4.03959
H          1.05959       -0.02271       -2.35784
H          1.33066        1.44164       -4.86917
H          0.37349        1.02102       -7.10950
H         -0.26312       -1.27510       -7.78194
H          0.94795       -2.72723       -3.90652
