30

C          1.21029       -0.06103       -0.06375
C          0.57375       -1.44491        0.10307
C          1.14564       -2.11346        1.34891
O          0.54029       -2.53847        2.31959
O          2.48699       -2.26436        1.28823
C         -0.95393       -1.45366        0.09357
C         -1.73326       -0.29483        0.21289
C         -3.13170       -0.36726        0.21179
C         -3.78720       -1.60008        0.09821
C         -5.28681       -1.61594        0.07795
O         -5.87396       -0.54241       -0.05029
C         -5.98514       -2.88461        0.18726
C         -5.89159       -3.86252        1.15980
C         -6.72563       -4.98451        0.87710
C         -7.44083       -4.81471       -0.28729
S         -7.12552       -3.30221       -1.01980
C         -3.01673       -2.75946       -0.04096
C         -1.61968       -2.68486       -0.03904
H          1.01368        0.57876        0.80424
H          0.83601        0.44488       -0.96029
H          2.29886       -0.13716       -0.16331
H          0.88802       -2.05574       -0.75520
H          2.70906       -2.71395        2.13115
H         -1.27876        0.68828        0.30774
H         -3.70769        0.55337        0.29708
H         -5.25290       -3.78291        2.03216
H         -6.80072       -5.86931        1.49773
H         -8.14499       -5.49912       -0.74049
H         -3.47332       -3.73730       -0.16419
H         -1.04938       -3.60808       -0.13414
