16

O          1.29937       -0.70377       -0.25957
N          2.33663       -0.06230       -0.04635
O          2.91214       -0.02072        1.05432
C          2.97364        0.69568       -1.19474
Br         4.71718       -0.15624       -1.48698
C          2.14619        0.58627       -2.47155
O          0.99899        1.44040       -2.46914
C          1.33933        2.78634       -2.17204
O          1.92319        2.89012       -0.88009
C          3.14719        2.15371       -0.79173
H          2.74895        0.87114       -3.34480
H          1.80720       -0.43738       -2.66965
H          0.41768        3.37490       -2.17460
H          2.00782        3.19855       -2.93752
H          3.52993        2.27210        0.22821
H          3.87391        2.65486       -1.44485
