38

C          1.65711        0.85786        0.51654
N          1.09575        0.11988        1.63402
C          0.35244        0.90375        2.60313
C          1.58522       -1.13589        1.87856
O          2.62595       -1.55798        1.37209
N          0.88244       -1.99984        2.65385
C         -0.55740       -2.05678        2.89124
C         -0.96427       -3.40664        3.54183
C         -1.94773       -4.01184        2.51238
C         -1.32751       -3.54257        1.20016
C         -1.39852       -2.06403        1.58581
C         -2.87986       -1.84855        1.99610
C         -3.86274       -1.56922        0.86245
C         -4.43201       -2.91360        0.44404
C         -4.41110       -3.75627        1.71212
C         -3.27337       -3.21926        2.58618
H          0.88125        1.49304        0.07915
H          2.03045        0.17909       -0.25666
H          2.48412        1.47635        0.87750
H         -0.68843        0.97222        2.27547
H          0.41622        0.46955        3.60280
H          0.77544        1.91234        2.65549
H          1.37189       -2.88639        2.66620
H         -0.82982       -1.23315        3.55455
H         -0.10564       -4.07239        3.68628
H         -1.43923       -3.25683        4.51739
H         -2.06934       -5.09234        2.61362
H         -1.90102       -3.80396        0.31212
H         -0.30340       -3.90478        1.05717
H         -1.05445       -1.37427        0.81322
H         -2.95514       -1.04616        2.73993
H         -3.40830       -1.02941        0.02629
H         -4.67993       -0.94607        1.24775
H         -3.82273       -3.36671       -0.34292
H         -5.44504       -2.81605        0.04027
H         -4.31503       -4.82446        1.49324
H         -5.36136       -3.61876        2.24286
H         -3.61578       -3.13832        3.62442
