32

C          0.96579        0.23563       -0.02157
N          0.27611        0.54372        1.20546
C         -0.50260        1.64173        1.45052
O         -1.01262        1.81068        2.55237
O         -0.62804        2.47712        0.35042
C         -1.42183        3.62463        0.50294
C         -1.13201        4.59085        1.46411
C         -1.91668        5.74545        1.53854
C         -1.65156        6.79052        2.58150
C         -2.97435        5.91678        0.63036
C         -3.25411        4.95564       -0.35695
C         -4.38766        5.13835       -1.35034
C         -5.74681        5.20034       -0.64908
C         -4.17082        6.37177       -2.23056
C         -2.45672        3.80473       -0.41469
H          0.58314        0.81695       -0.86235
H          0.83824       -0.83008       -0.22633
H          2.02774        0.44962        0.12059
H          0.40635       -0.05131        2.01270
H         -0.30767        4.43989        2.15521
H         -1.48562        7.76350        2.10786
H         -2.50305        6.86327        3.26559
H         -0.76178        6.55156        3.17316
H         -3.58429        6.81611        0.69691
H         -4.40999        4.26681       -2.01816
H         -5.83482        6.07980       -0.00199
H         -6.55730        5.24684       -1.38456
H         -5.90800        4.31179       -0.02851
H         -3.20300        6.32247       -2.74197
H         -4.95123        6.44005       -2.99621
H         -4.19403        7.29984       -1.64908
H         -2.63764        3.04303       -1.16809
