29

C         -2.18730        1.41797       -0.73377
C         -1.08792        0.48517       -0.33150
N          0.14197        1.05866       -0.29784
C          1.26220        0.30031       -0.08028
C          2.49333        1.15920       -0.06417
C          1.19620       -1.08716        0.12003
C          2.42831       -1.93999        0.25484
O          3.51551       -1.42298        0.49609
N          2.45531       -3.32447        0.11107
N          1.44345       -4.22830       -0.19059
C         -0.09503       -1.62745        0.19321
C         -1.25235       -0.85775       -0.03753
C         -2.52945       -1.60946       -0.09826
O         -2.53032       -2.71526       -0.64252
N         -3.69431       -1.13961        0.47970
N         -3.76450       -0.06288        1.36846
H         -2.59777        1.92623        0.14314
H         -1.79238        2.19247       -1.40126
H         -2.98246        0.90616       -1.28179
H          2.52057        1.76590       -0.97632
H          2.43692        1.84167        0.79213
H          3.44922        0.64864       -0.01007
H          3.40561       -3.69487        0.16922
H          0.87706       -4.41320        0.63921
H          0.84291       -3.89259       -0.94496
H         -0.25296       -2.66988        0.43249
H         -4.48654       -1.77517        0.37971
H         -4.74742        0.13270        1.57922
H         -3.33394       -0.32550        2.25841
