45

C          1.00049        0.23605       -0.33553
C          0.71103       -1.25422       -0.43291
C          1.14151       -2.03888        0.80942
C          0.46707       -1.61254        2.11830
C         -1.06058       -1.73889        2.13493
C         -1.59489       -3.16439        1.95911
C         -1.13494       -4.16250        3.02664
C         -1.56395       -3.82421        4.45923
C         -3.07957       -3.82586        4.70590
C         -3.79575       -5.14125        4.37203
N         -3.31639       -6.24352        5.20112
C         -3.84408       -7.55215        4.78769
C         -3.23128       -8.11319        3.48457
O         -1.80451       -8.15613        3.59449
C         -3.73852       -9.52842        3.18449
O         -5.14737       -9.55732        2.99074
H          0.40670        0.71054        0.45124
H          0.75204        0.73076       -1.27974
H          2.05972        0.41656       -0.12649
H         -0.35470       -1.40843       -0.63334
H          1.24890       -1.65696       -1.29967
H          0.96121       -3.10557        0.63184
H          2.22699       -1.93467        0.93220
H          0.89464       -2.20129        2.93813
H          0.73292       -0.57292        2.34197
H         -1.43381       -1.32441        3.07848
H         -1.48994       -1.10565        1.35011
H         -2.69043       -3.12790        1.94071
H         -1.29760       -3.54571        0.97508
H         -1.50737       -5.15519        2.75343
H         -0.04281       -4.24992        3.00126
H         -1.08408       -4.53623        5.14076
H         -1.16594       -2.84332        4.74326
H         -3.25958       -3.57646        5.75969
H         -3.54275       -3.01954        4.12450
H         -4.86874       -5.00354        4.55209
H         -3.67803       -5.35257        3.30535
H         -2.30121       -6.28187        5.24113
H         -3.60884       -8.24573        5.60437
H         -4.93697       -7.50848        4.71925
H         -3.49056       -7.46652        2.63883
H         -1.49681       -7.23433        3.56471
H         -3.26453       -9.89971        2.26909
H         -3.46490      -10.22982        3.98106
H         -5.56183       -9.67007        3.86335
