19

N          1.73632       -1.42931        0.08705
C          0.51198       -0.74198       -0.03086
C         -0.70172       -1.42541        0.02737
C         -1.90187       -0.70642       -0.03256
S         -3.45366       -1.55259       -0.01652
O         -4.08815       -1.29474        1.25653
O         -4.12330       -1.27553       -1.26782
O         -3.10268       -3.12822       -0.03714
C         -1.90861        0.69135       -0.10990
C         -0.69906        1.38093       -0.09234
C          0.48853        0.66133       -0.02047
O          1.65969        1.35696        0.10845
H          2.45478       -1.01173       -0.50314
H          1.65034       -2.42074       -0.12591
H         -0.71306       -2.50888        0.10115
H         -3.94947       -3.62126       -0.04010
H         -2.84619        1.24101       -0.15654
H         -0.67972        2.46678       -0.10430
H          2.26445        0.73607        0.55675
