34

C          0.47417       -0.29801        0.24165
C          0.60704        1.19231        0.50821
O          1.08470        1.84711       -0.66813
C          2.38011        2.26735       -0.56508
C          3.43680        1.37712       -0.51569
C          4.73781        1.88027       -0.54682
C          4.91215        3.24914       -0.64287
N          6.19495        3.82099       -0.84569
S          6.78117        4.88209        0.33223
O          7.03167        4.07817        1.51098
O          7.87997        5.58942       -0.29742
C          5.52060        6.05962        0.73203
C          4.52262        5.70209        1.64298
C          3.51796        6.61461        1.96553
C          3.51032        7.89291        1.40322
N          2.55765        8.83216        1.81930
C          4.59229        8.28431        0.60739
C          5.58487        7.36619        0.24479
N          3.86292        4.08325       -0.72875
N          2.58029        3.59263       -0.67316
H          0.08857       -0.48523       -0.76601
H         -0.18853       -0.76870        0.97291
H          1.44810       -0.79171        0.30943
H         -0.38841        1.60261        0.71353
H          1.22310        1.38812        1.39545
H          3.26463        0.30837       -0.50243
H          5.57887        1.19714       -0.53423
H          6.91208        3.10393       -0.94206
H          4.49938        4.70701        2.07927
H          2.73299        6.31166        2.65274
H          2.43355        9.59636        1.16247
H          1.66962        8.40680        2.07098
H          4.66425        9.30951        0.25281
H          6.40238        7.68731       -0.39649
