47

C          0.97256       -0.08461        0.48184
C          0.50569        1.08394        1.33718
C          0.98785        2.44649        0.83177
C          0.58405        2.79673       -0.60570
C         -0.93437        2.81105       -0.89338
C         -1.72609        3.77560        0.01486
C         -1.31251        5.23911       -0.07256
C         -1.21593        3.10253       -2.38200
O         -0.68969        2.04787       -3.20781
C          0.42746        2.34653       -3.91103
O          1.03899        3.39972       -3.93833
C          0.85860        1.13620       -4.62016
C          1.85859        0.34176       -4.07062
C          2.31454       -0.78008       -4.77557
C          1.80000       -1.13787       -6.03790
N          2.29899       -2.22684       -6.75627
C          3.14635       -3.21151       -6.08836
C          1.61753       -2.67712       -7.96671
C          0.78878       -0.30152       -6.55366
C          0.31558        0.82140       -5.85997
H          0.51259       -0.06464       -0.51074
H          0.69372       -1.03157        0.95502
H          2.06020       -0.07372        0.35975
H         -0.58713        1.06899        1.40981
H          0.88462        0.94231        2.35662
H          0.63362        3.22449        1.51754
H          2.08361        2.47251        0.89152
H          1.01405        3.77415       -0.85707
H          1.07679        2.08230       -1.27335
H         -1.31154        1.79834       -0.69962
H         -2.79232        3.70223       -0.23399
H         -1.64251        3.45036        1.05822
H         -1.43992        5.63492       -1.08400
H         -1.93513        5.84161        0.59720
H         -0.27132        5.38390        0.22896
H         -2.29777        3.11649       -2.55660
H         -0.83390        4.08445       -2.68183
H          2.29730        0.59259       -3.10870
H          3.10562       -1.36062       -4.31040
H          2.61369       -3.68992       -5.25927
H          3.46155       -4.00317       -6.77737
H          4.06884       -2.75237       -5.71680
H          0.59704       -3.00661       -7.74345
H          1.59149       -1.88509       -8.72305
H          2.14186       -3.51936       -8.43203
H          0.34723       -0.49629       -7.52654
H         -0.45385        1.44792       -6.30220
