47

C          0.55536        0.71395       -0.34542
C          0.04525        1.19324        1.01242
N          0.93187        2.13923        1.67512
C          0.31154        2.86388        2.78649
C          0.61550        2.40362        4.20476
C          2.35201        1.77701        1.80800
C          2.79988        0.54206        2.66434
O          2.17383       -0.65706        2.14223
C          1.63267       -1.48801        3.06344
O          1.59109       -1.33760        4.27347
C          1.17195       -2.72884        2.40811
C          0.17832       -2.71215        1.42239
C         -0.29173       -3.91403        0.88172
C          0.24469       -5.13046        1.32787
N         -0.26107       -6.39514        0.77686
O         -1.19877       -6.33670       -0.03102
O          0.27918       -7.44426        1.15425
C          1.24727       -5.15055        2.30810
C          1.70153       -3.94628        2.85421
C          4.33034        0.39436        2.68125
C          4.96664       -0.83604        2.44730
C          6.35960       -0.95323        2.51113
C          7.14516        0.15715        2.80549
C          6.53803        1.38268        3.05367
C          5.14575        1.49571        3.00803
H          0.81116        1.56169       -0.99060
H         -0.22049        0.13249       -0.85409
H          1.43729        0.07342       -0.25647
H         -0.91629        1.68425        0.81447
H         -0.17596        0.34686        1.66628
H          0.61568        3.91439        2.70433
H         -0.77967        2.87935        2.66644
H          1.66246        2.58621        4.46662
H          0.00943        2.97332        4.91766
H          0.38150        1.34473        4.34593
H          2.75860        1.64523        0.79670
H          2.85773        2.67708        2.17641
H          2.51069        0.70007        3.70583
H         -0.25926       -1.77789        1.08825
H         -1.07911       -3.88604        0.12996
H          1.67043       -6.08753        2.66550
H          2.46167       -3.95691        3.63368
H          4.39152       -1.72861        2.21821
H          6.83133       -1.91655        2.33431
H          8.22707        0.06558        2.85102
H          7.14556        2.25196        3.29316
H          4.71080        2.46441        3.24305
