15

C          2.15331        0.73073       -0.00608
C          2.18930       -0.66627       -0.00386
C          1.01286       -1.42547       -0.00203
C         -0.18967       -0.71555       -0.00273
N         -1.50166       -1.11519       -0.00227
C         -2.28425        0.00495       -0.00314
N         -1.56277        1.10209       -0.00442
C         -0.25694        0.67420       -0.00449
C          0.93212        1.41723       -0.00619
H          3.08280        1.29513       -0.00778
H          3.15164       -1.17452       -0.00365
H          1.04267       -2.50934       -0.00034
H         -1.83161       -2.06892       -0.00181
H         -3.36500       -0.04194       -0.00292
H          0.89555        2.50069       -0.00777
