19

C          2.59647       -0.03226       -0.07084
C          1.08726        0.01233       -0.02119
C          0.33397       -1.20368       -0.00643
N          0.95341       -2.55985        0.00336
O          0.19284       -3.53482       -0.05695
O          2.18414       -2.66179        0.08038
C         -1.07939       -1.18752        0.00347
C         -1.77823        0.01065        0.00844
C         -1.07592        1.20752        0.01676
C          0.33893        1.22475        0.00814
N          0.94100        2.58080        0.04303
O          0.22822        3.52862       -0.31036
O          2.09814        2.71221        0.46235
H          2.98844       -0.45215        0.86224
H          2.92475       -0.63003       -0.92780
H          3.09580        0.92103       -0.22043
H         -1.65735       -2.11198        0.00744
H         -2.86643        0.01186        0.01268
H         -1.65188        2.13347        0.03309
