43

C          0.95031       -0.07094       -0.00795
O          0.02862       -0.30812        1.05146
C          0.45565       -1.22187        1.97930
C          1.75546       -1.25372        2.49688
C          2.12079       -2.17104        3.49143
C          1.13059       -3.05737        3.91377
N          1.11711       -4.05406        4.85404
C         -0.06679       -4.73465        4.74704
S         -0.49388       -6.16025        5.63907
O         -1.59169       -6.87123        4.91010
C          1.04826       -7.10956        5.62950
C          1.39582       -7.85664        4.36445
N          0.74176       -9.03967        4.22955
C          1.02107       -9.82704        3.16994
C          1.96383       -9.52682        2.20449
C          2.23640      -10.49155        1.09507
C          2.61191       -8.29794        2.33537
O          3.58656       -7.91391        1.44405
C          3.06393       -7.62020        0.14738
C          2.38055       -7.45988        3.44712
C          3.18107       -6.19589        3.56358
N         -0.88965       -4.09229        3.94142
C         -0.15874       -3.06800        3.39726
C         -0.52175       -2.11084        2.44214
H          0.43155        0.51380       -0.77379
H          1.27816       -1.01051       -0.46624
H          1.80697        0.51861        0.33170
H          2.50442       -0.54403        2.15737
H          3.12546       -2.18722        3.89962
H          1.88079       -4.27931        5.47318
H          1.86640       -6.48405        5.99131
H          0.91590       -7.86145        6.41891
H          0.44895      -10.75067        3.13560
H          1.68266      -10.20463        0.19612
H          3.30638      -10.53048        0.86565
H          1.93649      -11.50776        1.37255
H          3.39960       -8.39229       -0.55187
H          1.97112       -7.54228        0.11734
H          3.48493       -6.66469       -0.17962
H          4.21376       -6.34757        3.23097
H          2.73242       -5.41405        2.94500
H          3.26603       -5.84599        4.59311
H         -1.53338       -2.08536        2.05325
