13

O          1.01516       -0.09288       -0.03382
P          2.56351       -0.09288       -0.03382
O          2.61791        0.65262       -1.48994
O          2.63007        1.27496        0.87009
C          4.39351       -0.09288       -0.03382
C          4.98777       -1.12063       -0.97971
Cl         5.46529       -0.40648       -2.53990
H          1.70792        0.90106       -1.74486
H          1.73039        1.65685        0.90146
H          4.81099        0.90734       -0.20234
H          4.66712       -0.38122        0.98903
H          5.90226       -1.54043       -0.55118
H          4.29042       -1.93698       -1.18465
