31

C          0.66351       -0.45125        0.01291
O          0.91078       -1.81169        0.30587
P          1.62272       -2.22685        1.70347
S          3.30367       -1.29478        1.98813
N          0.42504       -2.04231        2.81954
C          0.61954       -2.43630        4.21289
C          1.08424       -1.26294        5.07621
C         -0.70952       -2.97206        4.74429
O          1.84091       -3.82256        1.50247
C          0.86468       -4.73415        1.20345
C          0.14788       -4.65510        0.00842
C         -0.78735       -5.64168       -0.31613
C         -0.98996       -6.71728        0.54509
Cl        -2.12878       -7.93829        0.13141
C         -0.26092       -6.82235        1.72638
C          0.67381       -5.83521        2.04779
Cl         1.59808       -6.03420        3.49251
H          0.28607        0.08193        0.88898
H         -0.08947       -0.39901       -0.77790
H          1.57831        0.02466       -0.34886
H          0.00011       -1.12348        2.79161
H          1.36391       -3.23473        4.27754
H          0.37764       -0.42639        5.03576
H          1.17585       -1.57036        6.12395
H          2.06305       -0.89167        4.76250
H         -1.06311       -3.81883        4.14607
H         -0.59973       -3.31960        5.77747
H         -1.48854       -2.20078        4.73241
H          0.32487       -3.85455       -0.70285
H         -1.33859       -5.57295       -1.25124
H         -0.40664       -7.67486        2.38369
