51

O          1.37922       -0.09474       -0.73151
C          2.56348       -0.03462       -0.41650
C          3.07976        1.20344        0.22511
C          2.47064        1.67915        1.39241
C          3.02933        2.77150        2.06231
C          4.17164        3.38344        1.55199
F          4.71761        4.41638        2.20656
C          4.76075        2.93609        0.37429
C          4.21274        1.84237       -0.29578
C          3.57467       -1.17157       -0.62374
C          3.04368       -2.31652       -1.49029
C          2.09976       -3.25473       -0.73772
N          2.61148       -3.68439        0.56533
C          1.73386       -4.65150        1.26437
C          0.37286       -4.19511        1.87187
N         -0.57527       -3.74444        0.86174
C         -0.81892       -2.38220        0.74560
O         -0.49957       -1.54948        1.59231
N         -1.40664       -1.97482       -0.42252
C         -1.79428       -2.84523       -1.43982
C         -2.24326       -2.34581       -2.66150
C         -2.63579       -3.23258       -3.66886
C         -2.59533       -4.61138       -3.45010
C         -2.13481       -5.10889       -2.23162
C         -1.72086       -4.21896       -1.23530
C         -1.10473       -4.70893        0.00945
O         -1.03339       -5.92093        0.21430
C          2.99971       -2.56169        1.41607
C          4.06670       -1.71456        0.72136
H          1.58672        1.18670        1.79423
H          2.59101        3.14296        2.98385
H          5.64565        3.43536       -0.00852
H          4.67447        1.49980       -1.21765
H          4.42291       -0.74220       -1.16912
H          2.52534       -1.91859       -2.37207
H          3.89490       -2.89982       -1.86289
H          1.15737       -2.72929       -0.64227
H          1.91590       -4.13223       -1.36954
H          1.56189       -5.49891        0.58882
H          2.32067       -5.07594        2.09030
H         -0.07189       -5.05042        2.39603
H          0.54262       -3.41962        2.62562
H         -1.42804       -0.97111       -0.56058
H         -2.27338       -1.27607       -2.84999
H         -2.97133       -2.84828       -4.62960
H         -2.90586       -5.29851       -4.23401
H         -2.07718       -6.18311       -2.06869
H          3.42776       -2.93768        2.35316
H          2.14072       -1.93631        1.68053
H          4.96089       -2.32817        0.54984
H          4.37456       -0.90495        1.39201
