20

N          0.72872       -0.07105       -0.00183
C          0.03493       -0.88269       -0.89590
C          0.46774       -2.15894       -1.21833
N         -0.21096       -2.96089       -2.06289
C         -1.36417       -2.43509       -2.57325
C         -2.20325       -3.11695       -3.44937
N         -1.84511       -4.38412       -3.94088
N         -3.34602       -2.61460       -3.93981
C         -3.68064       -1.39578       -3.52951
N         -4.85383       -0.86161       -4.01661
N         -2.95342       -0.64139       -2.71426
C         -1.82257       -1.15409       -2.23850
N         -1.10835       -0.38914       -1.40098
H          0.23714        0.81981        0.04568
H          1.70051        0.05156       -0.26372
H          1.37452       -2.57460       -0.79391
H         -2.62894       -4.77950       -4.44934
H         -1.48023       -4.97599       -3.20021
H         -4.82094        0.14823       -3.98569
H         -5.10107       -1.29303       -4.89612
