22

Cl         1.32729        1.66748       -0.19128
C         -0.11257        0.71911       -0.09085
C         -1.33283        1.39431       -0.02075
C         -2.53008        0.67720        0.06687
C         -2.53005       -0.72655        0.08631
C         -3.79526       -1.47617        0.17650
C         -4.71424       -1.39377       -0.88805
C         -5.93294       -2.08204       -0.85312
Cl        -6.99195       -1.90777       -2.20634
C         -6.25352       -2.87215        0.25307
Cl        -7.73717       -3.74887        0.36752
C         -5.35864       -2.96759        1.31969
C         -4.14350       -2.27434        1.28435
Cl        -3.11526       -2.41794        2.66949
C         -1.29571       -1.39268        0.00279
C         -0.09387       -0.67817       -0.07933
Cl         1.37445       -1.58540       -0.16431
H         -1.36039        2.48161       -0.02975
H         -3.46770        1.22816        0.12966
H         -4.47314       -0.78685       -1.76049
H         -5.60954       -3.57788        2.18465
H         -1.26720       -2.48124        0.00759
