29

C         -3.88171        0.61416        0.77629
C         -3.82815       -0.69413        0.34034
N         -2.67966       -1.27352       -0.07045
C         -1.57724       -0.49983       -0.04719
C         -0.37255       -1.03137       -0.49497
C          0.75165       -0.22819       -0.51976
C          0.69908        1.09223       -0.07149
C         -0.47990        1.63463        0.40329
C         -1.63230        0.85610        0.40731
N         -2.78896        1.40600        0.82477
C          2.06163        1.72161       -0.23894
C          2.95922        1.39127        0.97831
N          3.75677        0.16219        0.82839
C          3.05632       -0.95212        0.16749
C          2.14886       -0.52494       -1.01067
C          2.53241        0.90237       -1.46091
H         -4.81238        1.06768        1.09711
H         -4.71451       -1.31685        0.30404
H         -0.33551       -2.05741       -0.84629
H         -0.52556        2.66400        0.74375
H          2.00372        2.79321       -0.44914
H          2.36924        1.33984        1.90153
H          3.67436        2.21191        1.10839
H          4.13397       -0.13345        1.72739
H          3.83361       -1.61856       -0.22445
H          2.49282       -1.52946        0.91044
H          2.15671       -1.24082       -1.83734
H          3.59913        1.01925       -1.68021
H          1.97386        1.19081       -2.36329
