84

O          1.10152       -0.22407       -0.27341
C          2.33038       -0.19308       -0.22846
N          3.05309        0.69482       -0.99723
C          4.43768        0.75134       -1.28209
C          5.27143       -0.36787       -1.22074
C          6.66030       -0.22024       -1.26591
Cl         7.63398       -1.63067       -1.02818
C          7.24224        1.04658       -1.41757
N          8.64274        1.16598       -1.25507
C          9.43915        2.23734       -0.91000
O         10.65831        2.12495       -0.87270
C          8.84086        3.51644       -0.49373
C          9.10152        4.62229       -1.30436
C          8.41631        5.82243       -1.09878
C          8.65327        6.91286       -1.94965
C          7.94108        8.10030       -1.80142
C          6.98472        8.21023       -0.79971
C          6.74882        7.13673        0.06419
C          7.45729        5.92088       -0.05607
C          7.24106        4.80446        0.80380
N          6.29172        4.88496        1.85407
N          5.28436        4.19967        1.56217
C          4.30608        4.28110        2.57175
C          4.50277        3.64062        3.80784
C          3.51144        3.65680        4.80721
C          3.75386        2.96362        6.12759
F          4.01805        1.63740        5.97423
F          4.81574        3.48421        6.80054
F          2.69603        3.03866        6.98214
C          2.30355        4.32074        4.55024
C          2.09140        4.95384        3.32418
C          3.08477        4.93154        2.34139
Cl         2.76126        5.72689        0.84168
C          7.97580        3.61912        0.60052
O          7.78161        2.57055        1.47096
C          6.40021        2.12181       -1.71054
C          5.01039        1.97999       -1.63259
Cl         4.03125        3.37793       -1.90528
C          3.00461       -1.13562        0.68694
C          4.01001       -0.68560        1.54924
C          4.82435       -1.60414        2.21890
C          5.92517       -1.14967        2.96367
C          6.78894       -2.05140        3.58157
C          6.55022       -3.41620        3.47860
C          5.44883       -3.88124        2.75442
C          4.56692       -2.99531        2.09722
C          3.45997       -3.43926        1.31605
N          3.20224       -4.82630        1.18255
N          2.08652       -5.10785        1.67380
C          1.83873       -6.48937        1.57572
C          1.40758       -7.04817        0.35939
C          1.10114       -8.41781        0.25259
C          0.63888       -8.99500       -1.06492
F         -0.48368       -8.38723       -1.53678
F          1.57503       -8.87420       -2.04518
F          0.34099      -10.32344       -0.99746
C          1.22859       -9.22845        1.39019
C          1.64838       -8.68391        2.60553
C          1.94747       -7.32264        2.69811
Cl         2.45054       -6.70064        4.23084
C          2.69035       -2.49414        0.61124
O          1.66262       -2.93097       -0.19378
H          2.49345        1.47477       -1.33509
H          4.86427       -1.36791       -1.10722
H          9.16595        0.29277       -1.28375
H          9.80868        4.52296       -2.12709
H          9.39124        6.84395       -2.74725
H          8.12839        8.93425       -2.47331
H          6.41746        9.13110       -0.68893
H          5.98886        7.25410        0.83518
H          5.44483        3.12225        3.98741
H          1.51627        4.34625        5.30386
H          1.14680        5.46008        3.13756
H          8.50272        1.92521        1.36655
H          6.79411        3.09246       -1.98825
H          4.21189        0.38157        1.63005
H          6.13521       -0.08484        3.05095
H          7.64844       -1.68891        4.14006
H          7.22119       -4.12426        3.95897
H          5.28939       -4.95689        2.69415
H          1.30682       -6.39810       -0.51039
H          0.99521      -10.29179        1.33848
H          1.73511       -9.32371        3.48047
H          1.04273       -2.18237       -0.33248
