17

C          1.17466        0.16300        0.23276
C          0.39181       -0.71459        0.87615
C         -1.10343       -0.73541        0.77387
O         -1.58659       -1.99062        0.29863
C         -1.18901       -2.33587       -1.02711
C         -1.73893       -1.38000       -2.04227
C         -0.98120       -0.66589       -2.88657
H          0.75618        0.92512       -0.41827
H          2.25415        0.12958        0.33758
H          0.84374       -1.46814        1.51544
H         -1.51615       -0.59877        1.77964
H         -1.49833        0.08386        0.16339
H         -0.10006       -2.43806       -1.08686
H         -1.60482       -3.32854       -1.23280
H         -2.82017       -1.27664       -2.07384
H         -1.43152        0.01758       -3.59895
H          0.10237       -0.74086       -2.87778
