21

C          1.13672        0.17286       -0.05332
C          0.22854        1.36733       -0.28815
O          0.97025        2.58790       -0.05793
C          0.37439        3.39038        0.87214
O          0.75167        4.48223        1.24412
C         -0.80237        2.67571        1.34648
C         -1.70607        3.06937        2.31849
C         -2.74119        2.17587        2.61692
N         -3.72524        2.52688        3.64903
O         -3.63658        3.64613        4.17130
O         -4.58400        1.68101        3.93512
C         -2.84963        0.93662        1.94574
C         -1.91692        0.58050        0.96381
C         -0.89167        1.46829        0.67913
H          0.63286       -0.76387       -0.31272
H          1.45270        0.10992        0.99445
H          2.04793        0.25877       -0.65457
H         -0.13674        1.38905       -1.32040
H         -1.59202        4.02728        2.81858
H         -3.65523        0.24218        2.18260
H         -1.99900       -0.37269        0.44788
