35

C          0.16547        0.11500        0.27247
O          0.48811        1.41214       -0.23556
C          1.08222        2.18193        0.73366
C          0.27399        3.09148        1.41982
C          0.83480        3.91685        2.39291
C          2.20189        3.84650        2.66253
C          3.01254        2.95358        1.95447
C          2.46335        2.10797        0.98219
N          3.28190        1.22623        0.24638
N          3.54037        0.22344        0.94286
C          4.10113       -0.86634        0.22468
C          3.74093       -1.17813       -1.10429
O          2.94121       -0.36539       -1.86677
C          4.14939       -2.35669       -1.71569
C          4.92904       -3.26484       -1.00812
C          5.33604       -2.98769        0.30397
C          6.12422       -3.91468        1.00551
C          6.55235       -3.65250        2.30594
C          6.19818       -2.45945        2.92195
C          5.39687       -1.53661        2.24497
C          4.94021       -1.77591        0.92817
H         -0.77499       -0.20245       -0.18758
H          0.03878        0.09199        1.36126
H          0.93835       -0.59861       -0.02161
H         -0.78748        3.15309        1.19594
H          0.20726        4.61975        2.93568
H          2.63964        4.49389        3.41854
H          4.07912        2.91368        2.15908
H          2.77007        0.43796       -1.33566
H          3.83925       -2.57552       -2.73377
H          5.21695       -4.19496       -1.49313
H          6.41142       -4.85594        0.54129
H          7.16420       -4.37959        2.83360
H          6.54080       -2.24418        3.93085
H          5.13649       -0.61099        2.75523
