28

C          1.34271        0.16821       -0.16656
C          0.49335        0.30894       -1.41848
C          1.08428       -0.35823       -2.66484
C          0.93773       -1.84746       -2.75285
O          0.17828       -2.44680       -3.49710
O          1.75952       -2.51096       -1.92193
C         -1.02388        0.12384       -1.28827
O         -1.75756        1.06743       -1.61795
N         -1.65302       -1.04478       -0.99029
C         -1.19951       -2.26968       -0.49551
C         -1.67753       -3.43330       -1.10571
C         -1.19742       -4.68428       -0.71311
C         -0.28132       -4.78107        0.33119
C          0.12164       -3.63071        1.00520
C         -0.35247       -2.37976        0.60166
H          1.68500       -0.85231        0.00720
H          0.80569        0.52462        0.71817
H          2.25045        0.77609       -0.26122
H          0.57578        1.38695       -1.63864
H          0.59674        0.05217       -3.55886
H          2.14915       -0.11618       -2.76819
H          1.47928       -3.44786       -2.00557
H         -2.60200       -1.03470       -1.35087
H         -2.36770       -3.37376       -1.94469
H         -1.53125       -5.57887       -1.23280
H          0.10072       -5.75251        0.63428
H          0.80096       -3.70385        1.85097
H         -0.08548       -1.50976        1.19016
