21

N          0.65261       -0.10336       -0.20437
C          0.18303        0.93624       -0.92175
O         -1.02447        1.14228       -0.99200
N          1.07196        1.78039       -1.49899
C          2.45053        1.67586       -1.75771
C          3.11011        2.84581       -2.15316
C          4.47624        2.83536       -2.43930
C          5.19589        1.64665       -2.35082
C          4.55127        0.45532       -1.98845
C          5.33681       -0.83120       -1.91688
F          6.03797       -1.08120       -3.05721
F          6.25339       -0.81964       -0.90948
F          4.56495       -1.93291       -1.70403
C          3.17497        0.48244       -1.69499
H         -0.07985       -0.59819        0.28950
H          1.46639        0.09248        0.36134
H          0.61176        2.61990       -1.83084
H          2.57085        3.78755       -2.22872
H          4.97674        3.75520       -2.73283
H          6.26113        1.64619       -2.57881
H          2.68112       -0.45898       -1.46865
