42

Cl        -2.36420        0.26106       -0.14725
C         -0.64647        0.17387       -0.12440
C         -0.01237       -1.04209       -0.36276
C          1.38295       -1.11338       -0.34997
C          2.15415        0.02360       -0.07198
C          3.66277       -0.04030       -0.02846
C          4.23752       -0.61407        1.27870
C          4.15469       -2.14456        1.43617
C          4.72676       -3.00312        0.28376
N          6.13879       -2.95546       -0.02707
C          6.91275       -1.86708       -0.31108
C          8.16730       -2.37103       -0.56804
N          8.15836       -3.73702       -0.52658
C          6.91728       -4.06288       -0.24539
S          4.57598       -2.67197        3.17243
C          6.36867       -2.80463        3.18982
C          6.99243       -4.06550        3.06489
Cl         6.09266       -5.54428        2.91705
C          8.38821       -4.18486        3.05035
C          9.19035       -3.05804        3.19248
C          8.59744       -1.81585        3.39167
C          7.20164       -1.69006        3.41283
Cl         6.58808       -0.11423        3.79338
C          1.49818        1.24233        0.16060
C          0.10331        1.31891        0.12816
H         -0.59654       -1.93665       -0.56173
H          1.85311       -2.06945       -0.56062
H          4.03174       -0.57660       -0.90855
H          4.05287        0.98073       -0.14070
H          5.28141       -0.30042        1.33938
H          3.72542       -0.13073        2.12209
H          3.08295       -2.37521        1.43021
H          4.47302       -4.05374        0.47707
H          4.21801       -2.75403       -0.65485
H          6.55366       -0.85064       -0.30915
H          9.06970       -1.82079       -0.80096
H          6.53870       -5.07423       -0.16918
H          8.85607       -5.15722        2.91151
H         10.27308       -3.15134        3.16137
H          9.22984       -0.94319        3.53962
H          2.06890        2.14686        0.36304
H         -0.38896        2.27200        0.30191
