36

C          1.06409        0.32303       -0.02181
C          0.64868        0.72091       -1.43068
C          1.11471       -0.26098       -2.51043
C          0.67112       -1.71485       -2.30869
C         -0.85588       -1.95327       -2.28475
C         -1.55591       -1.55397       -3.60223
C         -1.12204       -2.33798       -4.83501
C         -1.19443       -3.40920       -1.90083
O         -0.75133       -3.70049       -0.56122
C          0.41285       -4.40148       -0.44155
O          1.07231       -4.82778       -1.38211
C          0.77115       -4.64231        1.03201
C          0.35820       -3.50073        1.95233
O          0.21681       -5.85639        1.52632
H          0.53786       -0.57730        0.30673
H          0.81836        1.12125        0.68560
H          2.14117        0.13664        0.03612
H         -0.43954        0.83967       -1.46866
H          1.07595        1.70577       -1.65398
H          0.78339        0.10108       -3.48985
H          2.21191       -0.24543       -2.54097
H          1.12753       -2.33066       -3.09276
H          1.11623       -2.06311       -1.37196
H         -1.27231       -1.32061       -1.49029
H         -2.63929       -1.67904       -3.47997
H         -1.40068       -0.48614       -3.79334
H         -1.35869       -3.40160       -4.73881
H         -1.65010       -1.96435       -5.71864
H         -0.05038       -2.23599       -5.02623
H         -2.28287       -3.54007       -1.89384
H         -0.79583       -4.12955       -2.62283
H          1.86300       -4.72995        1.07718
H         -0.73219       -3.40965        2.01166
H          0.70954       -3.68870        2.97268
H          0.76733       -2.54540        1.61259
H         -0.74944       -5.79380        1.43057
