42

O          0.69192       -1.66238       -0.22347
C          1.49427       -0.73853       -0.20942
O          2.04522       -0.28412       -1.35142
N          1.94736       -0.11396        0.93331
C          2.75058        1.10823        0.95522
C          2.57422        1.90659        2.25791
N          2.79649        1.11739        3.46224
C          4.17405        0.90575        3.91797
C          5.32390        0.22626        3.09865
N          6.15068        0.89509        2.06874
C          5.93157        2.31480        1.77621
C          6.48069        3.27422        2.83066
N          7.91381        3.08531        2.91948
C          8.73083        4.11017        2.54019
O          8.38261        5.23529        2.20240
O         10.03505        3.80617        2.54632
C          8.33434        1.70401        3.18580
C          7.61557        0.68192        2.25446
C          1.90379       -0.04641        3.46106
C          1.90523       -0.89052        2.17534
H          2.87230        0.19088       -1.17820
H          3.78357        0.79296        0.79797
H          2.46967        1.74686        0.11062
H          1.53781        2.27105        2.28462
H          3.16062        2.82780        2.28049
H          4.53538        1.85919        4.30754
H          4.08831        0.29762        4.83186
H          6.00576       -0.16106        3.87025
H          4.91620       -0.67883        2.63283
H          6.43853        2.52810        0.82305
H          4.89938        2.53469        1.55742
H          6.06745        3.09112        3.82405
H          6.22217        4.30239        2.55880
H         10.43606        4.65101        2.25438
H          8.07934        1.49130        4.23002
H          9.41769        1.59885        3.07634
H          7.82848       -0.34183        2.58710
H          8.07548        0.76161        1.25990
H          0.88437        0.34455        3.59343
H          2.07457       -0.68466        4.33542
H          1.02263       -1.54043        2.17460
H          2.78482       -1.54296        2.16508
