17

N         -1.35593       -2.16167       -0.18308
C         -0.64820       -0.95347       -0.01482
C          0.74965       -0.99715       -0.04474
C          1.48961        0.17983       -0.01511
Cl         3.20875        0.10646       -0.02103
C          0.85137        1.41630        0.00776
C         -0.55347        1.49595       -0.01396
C         -1.19898        2.84115       -0.00783
O         -2.38105        3.11385        0.03546
O         -0.29248        3.83834       -0.05351
C         -1.30207        0.30421       -0.04338
Cl        -3.04047        0.28847       -0.08358
H         -0.90555       -2.98126        0.21215
H         -2.33777       -2.08577        0.08149
H          1.26293       -1.95416       -0.09732
H          1.45907        2.31863        0.02946
H         -0.84439        4.65003       -0.04654
