22

Cl        -2.71056        0.76844       -0.30635
C         -1.18520       -0.03700       -0.12532
C         -1.21515       -1.43847       -0.12265
C         -0.03569       -2.16638       -0.00561
C          1.17560       -1.49309        0.11259
C          1.20924       -0.09179        0.11820
Cl         2.76974        0.64298        0.30119
C          0.02876        0.67410       -0.00256
C          0.06280        2.15034        0.00102
C          0.57828        2.86269       -1.09461
C          0.61896        4.25916       -1.08698
C          0.13483        4.96492        0.01174
C         -0.38591        4.27654        1.10473
C         -0.41704        2.87983        1.10154
H         -2.16175       -1.96656       -0.21584
H         -0.06036       -3.25337       -0.00643
H          2.09729       -2.06367        0.20488
H          0.96064        2.33012       -1.96299
H          1.02979        4.79413       -1.93911
H          0.16354        6.05140        0.01631
H         -0.76832        4.82528        1.96132
H         -0.82580        2.36090        1.96615
