21

C          0.84685        0.18290        0.14269
C          0.30089       -0.47716        1.37680
O         -0.82829       -0.19393        1.78708
N          1.00684       -1.44315        2.03015
C          2.33988       -1.87969        1.93469
C          2.63509       -3.12284        2.50548
C          3.93812       -3.61982        2.49119
C          4.96068       -2.87163        1.91097
C          4.68631       -1.64148        1.31187
N          5.73902       -0.82451        0.87768
C          3.38136       -1.13295        1.37685
H          0.00827        0.53618       -0.46664
H          1.40769       -0.52619       -0.47085
H          1.45987        1.04431        0.41497
H          0.42599       -1.91949        2.71131
H          1.85388       -3.72339        2.96541
H          4.15949       -4.58195        2.94550
H          5.97805       -3.25269        1.94078
H          6.56393       -1.33826        0.58331
H          5.46533       -0.11858        0.20156
H          3.21937       -0.12110        1.02876
