28

C          2.69468        1.42321       -0.05795
C          1.26645        0.95631       -0.00742
C          0.22933        1.90355       -0.05390
C         -1.13410        1.54316       -0.02761
C         -2.18827        2.64527       -0.06687
C         -2.31180        3.46024        1.21595
C         -1.54636        4.62652        1.43611
Cl        -0.57500        5.36177        0.20450
C         -1.57789        5.30410        2.66399
C         -2.40912        4.86991        3.68784
C         -3.22913        3.77082        3.47276
C         -3.18469        3.07533        2.25553
Cl        -4.31214        1.77631        2.10310
C         -1.43177        0.17072        0.00142
Cl        -3.04065       -0.44445       -0.11320
C         -0.41032       -0.78553        0.06587
C          0.92754       -0.39663        0.06596
Cl         2.13470       -1.62934        0.13030
H          3.24250        1.08256        0.82613
H          3.18507        1.04920       -0.96254
H          2.75927        2.51676       -0.07864
H          0.50710        2.95022       -0.13313
H         -1.95498        3.30418       -0.91306
H         -3.16884        2.24924       -0.34951
H         -0.96001        6.18590        2.82094
H         -2.43818        5.39971        4.63633
H         -3.91343        3.45639        4.25863
H         -0.66128       -1.84371        0.09964
