21

Cl         1.08741       -0.37742       -0.04678
C          2.81070       -0.19683       -0.04995
C          3.30171        1.12158       -0.05016
C          4.69284        1.34590       -0.05284
C          5.52234        0.22946       -0.05519
O          6.82482        0.62230       -0.05783
C          6.85612        1.98285       -0.05723
C          8.01830        2.76381       -0.05955
Cl         9.55768        1.98501       -0.06373
C          7.85847        4.16080       -0.05837
Cl         9.27020        5.17969       -0.06124
C          6.57357        4.73033       -0.05494
Cl         6.36780        6.45732       -0.05332
C          5.43647        3.89964       -0.05278
Cl         3.82708        4.49471       -0.04851
C          5.56047        2.49389       -0.05397
C          5.06919       -1.09554       -0.05491
Cl         6.21744       -2.38249       -0.05782
C          3.67956       -1.29908       -0.05225
Cl         3.04203       -2.91599       -0.05186
H          2.60174        1.95345       -0.04833
