19

C          1.22934        0.16943        0.00050
C          0.38998        0.14252       -1.27012
C          0.77238       -0.95412       -2.21764
C          1.36358       -0.73745       -3.41317
N          1.71020       -1.68400       -4.36033
C          1.42484       -2.90668       -4.04986
O          1.70992       -3.89329       -4.91391
N          0.83681       -3.29170       -2.89312
C          0.46434       -2.39319       -1.93826
N         -0.12885       -2.83512       -0.87580
H          1.05685       -0.71334        0.62313
H          0.96899        1.04858        0.59955
H          2.29884        0.22026       -0.22759
H         -0.67205        0.05527       -1.01312
H          0.49780        1.11550       -1.76677
H          1.60409        0.28112       -3.71148
H          1.43399       -4.75842       -4.58771
H          0.62383       -4.25113       -2.68318
H         -0.37159       -2.07171       -0.24020
