28

C          0.65156        0.13863        0.09293
C          0.52339        1.35215       -0.81918
N          1.15675        1.22234       -2.14279
C          0.51057        2.12219       -3.13252
C          0.64126        3.62526       -2.85657
C          0.90913        1.82955       -4.58615
C          2.63326        1.15622       -2.18583
C          3.38976        2.23548       -1.40430
C          3.15259       -0.23157       -1.77457
H          0.49139       -0.79617       -0.45429
H         -0.10501        0.18837        0.88386
H          1.62347        0.10627        0.58974
H         -0.55754        1.48746       -0.96048
H          0.86701        2.24695       -0.28844
H         -0.56435        1.89248       -3.09479
H          1.64864        3.99473       -3.06571
H         -0.04533        4.18483       -3.50249
H          0.38204        3.88145       -1.82530
H          0.85364        0.75786       -4.80363
H          0.22475        2.33935       -5.27408
H          1.91845        2.18355       -4.82091
H          2.95511        1.24604       -3.22715
H          3.13638        2.23500       -0.34091
H          4.47088        2.06748       -1.47920
H          3.20067        3.23391       -1.80344
H          2.52577       -1.03304       -2.17996
H          4.16435       -0.38365       -2.16980
H          3.22245       -0.35186       -0.69143
