32

C          0.19636       -0.05992        0.34553
C          0.23959        1.34716        0.92183
C          0.97719        2.44058        0.08895
C          2.01412        1.96214       -0.97391
C          3.15033        1.08178       -0.51471
C          3.49766       -0.12216       -1.01241
C          4.63680       -0.89834       -0.40846
C          2.80049       -0.79388       -2.16375
C          1.67999        3.34806        1.09771
O          2.62955        2.98264        1.79149
N          1.19259        4.60548        1.28610
C          0.20170        5.20506        0.58435
O         -0.12582        6.36617        0.79696
N         -0.39572        4.45846       -0.37612
C         -0.10116        3.17041       -0.71105
O         -0.73395        2.63147       -1.62017
H         -0.09049       -0.06565       -0.70887
H         -0.53306       -0.66498        0.89465
H          1.15945       -0.56117        0.46566
H         -0.80154        1.66106        1.08378
H          0.66679        1.27105        1.92994
H          1.48511        1.47558       -1.80202
H          2.47607        2.85440       -1.42248
H          3.75269        1.48267        0.30017
H          4.26223       -1.82593        0.03650
H          5.37743       -1.14981       -1.17415
H          5.15220       -0.33549        0.37703
H          1.82505       -1.18048       -1.85567
H          2.66648       -0.10594       -3.00438
H          3.38423       -1.64183       -2.53787
H          1.66054        5.17009        1.98180
H         -1.12150        4.91355       -0.91259
