23

O          1.07258        0.04687        0.23829
C          0.32983        1.11704        0.64224
C          0.67041        2.41341        0.27745
C         -0.12064        3.47705        0.71415
C         -1.25406        3.24865        1.51096
C         -1.57822        1.93287        1.89122
C         -0.78394        0.86989        1.43638
C         -2.79746        1.63069        2.72699
C         -3.33162        2.85239        3.47204
C         -3.43779        4.04463        2.52986
C         -2.05924        4.42975        1.99608
H          1.81981        0.37338       -0.28866
H          1.53934        2.61631       -0.33972
H          0.15085        4.49179        0.43114
H         -1.02978       -0.15503        1.70244
H         -2.56453        0.84703        3.45777
H         -3.57808        1.24170        2.06118
H         -2.66479        3.10218        4.30713
H         -4.31262        2.62127        3.90193
H         -4.10484        3.79427        1.69518
H         -3.88239        4.90008        3.05066
H         -2.18677        5.15340        1.18211
H         -1.48868        4.92402        2.79244
