28

C          0.41069       -2.21759        0.18811
C          0.27683       -1.99294       -1.30829
O          1.48089       -2.27581       -2.01282
C          2.52469       -1.30500       -1.86944
C          2.57729       -0.33255       -3.05415
O          2.53568        1.05012       -2.68895
C          1.27361        1.71013       -2.51609
C          0.16457        1.22475       -3.46008
C          0.84621        1.65194       -1.04457
C          1.54342        3.18861       -2.85159
H          0.64021       -3.26662        0.39644
H         -0.52045       -1.95364        0.69871
H          1.21752       -1.62210        0.62440
H         -0.49016       -2.67239       -1.69650
H         -0.07234       -0.98497       -1.52340
H          2.50448       -0.79801       -0.90384
H          3.44917       -1.89522       -1.88658
H          3.56633       -0.45221       -3.51441
H          1.86423       -0.57837       -3.84473
H         -0.09482        0.17651       -3.30015
H         -0.75357        1.80800       -3.33189
H          0.48069        1.31143       -4.50621
H          0.89575        0.64707       -0.63157
H         -0.17213        2.02906       -0.90413
H          1.51784        2.25185       -0.41894
H          2.34496        3.59538       -2.22410
H          1.87876        3.29701       -3.88931
H          0.64792        3.80385       -2.71047
