20

O          1.16166        0.06483        0.05114
C          0.62018       -0.74407        1.08825
C          1.13139       -2.15822        1.00008
C          0.24867       -3.23091        0.82337
C          0.73214       -4.53953        0.74909
C          2.10532       -4.79990        0.84393
C          2.61253       -6.21553        0.77896
O          2.24538       -6.93258        1.95006
C          2.98781       -3.72842        1.02658
C          2.50407       -2.42046        1.10492
H          1.57377       -0.52587       -0.60207
H          0.89259       -0.30567        2.05375
H         -0.47089       -0.71148        1.00300
H         -0.82249       -3.05792        0.74489
H          0.02990       -5.36206        0.61968
H          2.20152       -6.73025       -0.09572
H          3.70383       -6.24054        0.69445
H          2.06108       -6.27952        2.64701
H          4.05809       -3.90321        1.11127
H          3.20563       -1.59985        1.24930
