64

C          0.95540       -0.01214       -0.08111
C          0.13222        0.08096        0.97223
C         -1.36182        0.21167        0.87926
N         -1.94390       -1.06458        1.23611
C         -2.55102       -1.10122        2.48385
N         -3.40268       -0.15190        2.84128
C         -3.94217       -0.28431        4.04244
N         -4.74977        0.76530        4.43916
C         -5.80538        0.49163        5.38000
C         -6.17943        1.81940        5.97027
C         -7.36454        2.43094        5.84274
N         -3.69251       -1.29658        4.86243
C         -2.81726       -2.19587        4.42324
N         -2.44351       -3.27165        5.23566
C         -3.61119       -3.99719        5.74333
C         -3.15548       -5.19692        6.60871
N         -2.12413       -4.93675        7.62801
C         -2.55645       -4.75408        9.02908
C         -3.18237       -3.38501        9.31375
C         -4.49138       -3.05245        8.92377
C         -4.99507       -1.76517        9.12487
C         -4.19582       -0.80058        9.72278
F         -4.67472        0.43748        9.89970
C         -2.90664       -1.10189       10.13829
C         -2.40295       -2.38866        9.93831
C         -3.28240       -6.00201        9.57847
C         -2.74541       -7.27823        9.28842
C         -3.35778       -8.44783        9.74225
C         -4.50980       -8.35782       10.50708
F         -5.11031       -9.47637       10.93370
C         -5.04328       -7.12144       10.84431
C         -4.42335       -5.94894       10.39798
C         -1.07856       -4.01864        7.14514
C         -1.57300       -2.80346        6.32374
N         -2.22630       -2.13473        3.23965
H          0.57864       -0.00893       -1.09966
H          2.02831       -0.10398        0.05713
H          0.55339        0.07193        1.97535
H         -1.68806        1.05199        1.50385
H         -1.66037        0.45161       -0.14747
H         -1.28278       -1.83545        1.23080
H         -5.02923        1.27630        3.60996
H         -6.65844        0.02250        4.87540
H         -5.48900       -0.16412        6.19884
H         -5.39856        2.30744        6.55137
H         -7.53446        3.39801        6.30812
H         -8.18113        1.99542        5.27690
H         -4.26672       -3.34178        6.32278
H         -4.20143       -4.38620        4.90366
H         -2.72127       -5.93843        5.92391
H         -4.03913       -5.68695        7.03197
H         -1.63055       -4.77578        9.62573
H         -5.12833       -3.79476        8.44791
H         -6.00042       -1.50708        8.80841
H         -2.29850       -0.33312       10.60435
H         -1.38443       -2.60500       10.25649
H         -1.84032       -7.36192        8.68732
H         -2.94356       -9.42095        9.49989
H         -5.93825       -7.07478       11.45678
H         -4.85593       -5.00186       10.70774
H         -0.41966       -4.60915        6.49421
H         -0.43609       -3.67578        7.96503
H         -0.69510       -2.28843        5.91244
H         -2.09676       -2.09335        6.97475
