29

C          1.50224        0.04770        0.13547
C          1.29687        0.36684       -1.33700
C          1.13728       -0.86560       -2.23510
C         -0.02888       -1.80403       -1.89899
O         -1.26356       -1.32759       -2.45885
C         -2.08009       -0.76244       -1.51320
C         -2.18304        0.62932       -1.51951
C         -2.94840        1.27504       -0.55392
C         -3.63941        0.50713        0.38918
N         -4.41961        1.18132        1.42902
O         -5.27485        0.51649        2.02946
O         -4.17751        2.37844        1.64253
C         -3.59841       -0.89554        0.35186
C         -2.86145       -1.54494       -0.64376
N         -2.75217       -2.94680       -0.62605
H          0.65880       -0.50439        0.55813
H          1.60242        0.97582        0.70802
H          2.41345       -0.53983        0.28334
H          0.44394        1.03817       -1.44448
H          2.16606        0.93668       -1.68864
H          1.02679       -0.51574       -3.26925
H          2.07045       -1.43940       -2.18617
H          0.16431       -2.76248       -2.39618
H         -0.09113       -2.02730       -0.82845
H         -1.64008        1.20777       -2.26208
H         -2.98508        2.36190       -0.54268
H         -4.13892       -1.48291        1.09067
H         -3.58201       -3.41568       -0.27317
H         -2.47565       -3.30651       -1.53867
