15

C         -0.73161        1.20995        0.23523
C          0.71948        1.16507       -0.26781
O          1.38516       -0.02790        0.16616
C          0.67286       -1.19266       -0.27037
C         -0.77825       -1.18137        0.23423
N         -1.50794        0.02916       -0.18943
H         -0.74139        1.25905        1.33077
H         -1.22475        2.11476       -0.13508
H          0.76031        1.21977       -1.36227
H          1.27702        2.01913        0.12948
H          1.19671       -2.06908        0.12402
H          0.71037       -1.24598       -1.36504
H         -0.78883       -1.23043        1.32977
H         -1.30678       -2.06600       -0.13598
H         -1.56359        0.03064       -1.20810
