26

C          1.05106       -0.08434        0.23011
C          0.71747        1.39829        0.26472
C          1.17274        2.14687       -0.98943
C          0.48642        1.73925       -2.30117
C         -1.04350        1.71842       -2.29971
C         -1.69187        3.08263       -2.30542
O         -2.52524        3.43422       -3.13117
O         -1.27295        3.83022       -1.25289
C         -1.80682        5.15801       -1.15682
C         -1.11751        6.08817       -2.13908
H          0.54561       -0.59293       -0.59570
H          0.73365       -0.56259        1.16228
H          2.12971       -0.23757        0.12317
H         -0.35689        1.53233        0.42829
H          1.21505        1.84490        1.13410
H          1.03824        3.22114       -0.82320
H          2.25455        2.00782       -1.11238
H          0.83663        2.41458       -3.09228
H          0.83957        0.73821       -2.57794
H         -1.36714        1.22102       -3.22364
H         -1.45729        1.13005       -1.47608
H         -2.89378        5.15137       -1.29364
H         -1.60973        5.50090       -0.13555
H         -1.36058        5.82042       -3.17205
H         -1.42522        7.12414       -1.97222
H         -0.02929        6.01868       -2.04034
