41

C          0.99957       -0.03805       -0.12652
C          0.42234        1.36768       -0.30012
C          0.87838        1.94856       -1.64148
C         -1.11834        1.39031       -0.21642
C         -1.70957        0.88392        1.11039
C         -1.26655        1.68944        2.33100
N         -3.18927        0.84499        1.04402
N         -3.74017        1.95841        0.90835
C         -5.11064        1.88319        1.09445
O         -5.74517        0.90693        1.48692
C         -5.83969        3.15408        0.84032
C         -6.98959        3.40153        1.60824
C         -7.72139        4.58901        1.45453
C         -8.85397        4.85462        2.24048
C         -9.56972        6.04148        2.07994
C         -9.16585        6.97357        1.12875
C         -8.04208        6.72337        0.33894
C         -7.30568        5.53761        0.49326
C         -6.16482        5.27444       -0.28276
C         -5.43231        4.09819       -0.10678
O         -4.34496        3.95819       -0.92587
H          0.57075       -0.73584       -0.85357
H          0.80678       -0.42826        0.87725
H          2.08624       -0.03170       -0.26507
H          0.83489        2.00846        0.48812
H          0.51026        1.34905       -2.48089
H          0.51124        2.97257       -1.76715
H          1.97178        1.97834       -1.70024
H         -1.45991        2.41864       -0.39467
H         -1.53349        0.79028       -1.03753
H         -1.39759       -0.15493        1.26402
H         -1.47645        2.75712        2.20522
H         -1.79517        1.35148        3.22922
H         -0.19442        1.57405        2.51561
H         -7.30821        2.66435        2.34491
H         -9.18645        4.13827        2.98911
H        -10.44263        6.23671        2.69782
H         -9.72457        7.89731        1.00139
H         -7.74275        7.46536       -0.39837
H         -5.83541        5.99163       -1.03212
H         -3.85303        3.14805       -0.70081
