31

C          1.07367        0.08401       -0.03334
C          0.34697        0.46323       -1.10041
C         -1.14035        0.21947       -1.15165
C         -1.98168        1.46657       -0.89593
C          1.11380        1.09326       -2.22858
O          2.27188        1.48214       -2.11747
C          0.44532        1.28734       -3.52439
C         -0.35335        2.41851       -3.67557
C         -1.05177        2.60780       -4.86306
C         -0.92317        1.71228       -5.93633
O         -1.77693        2.03450       -6.95540
C         -1.40909        1.85144       -8.31001
C         -0.09532        2.42947       -8.81332
O          0.62143        1.94120       -9.67490
O          0.20514        3.63187       -8.28347
C         -0.06609        0.60261       -5.80606
Cl         0.09815       -0.57288       -7.07101
C          0.62706        0.39407       -4.58933
Cl         1.67705       -0.97762       -4.37658
H          0.61586       -0.39109        0.82875
H          2.15028        0.23141        0.01156
H         -1.42941       -0.24693       -2.09993
H         -1.40664       -0.51596       -0.37999
H         -2.28560        1.93620       -1.83522
H         -2.90592        1.19939       -0.37243
H         -1.45432        2.21193       -0.29174
H         -0.45557        3.13774       -2.86578
H         -1.71632        3.46614       -4.95655
H         -1.49537        0.79983       -8.59348
H         -2.18440        2.35852       -8.89866
H          1.03191        3.89441       -8.74091
