10

C          1.07417       -0.07828        0.03454
C          0.35025       -0.26963        1.14504
C         -1.14131       -0.25899        1.19851
O         -1.57940       -1.52628        1.65949
H          0.60842        0.10095       -0.92968
H          2.15949       -0.09480        0.07126
H          0.86236       -0.44007        2.08967
H         -1.49006        0.50543        1.89883
H         -1.59514       -0.06539        0.22150
H         -1.17217       -2.19031        1.07728
