43

C          0.94465       -0.12501       -0.02297
C          0.32960       -1.00359        1.08607
C          0.77779       -0.44365        2.44019
C         -1.19169       -0.96923        0.91759
N          0.89073       -2.33156        0.87705
C          0.66456       -3.43658        1.47524
O         -0.20755       -3.57866        2.48477
C          1.47636       -4.70536        1.15267
C          1.18743       -5.93902        2.02752
C         -0.02569       -6.75272        1.55195
C         -0.17319       -8.05426        2.35247
C         -1.31758       -8.91910        1.82527
C         -1.18647       -9.18509        0.32841
C         -1.06248       -7.88452       -0.46339
C          0.11177       -7.04384        0.04844
C          0.24448       -5.72117       -0.71189
N          1.45007       -5.00464       -0.29770
H          0.61790        0.91744        0.06244
H          0.65728       -0.48788       -1.01713
H          2.04017       -0.13929        0.02102
H          0.46715        0.60053        2.55851
H          0.36235       -1.00599        3.28108
H          1.86961       -0.48029        2.53682
H         -1.49548       -1.43828       -0.02475
H         -1.72480       -1.47977        1.72277
H         -1.55760        0.06464        0.91067
H         -0.62777       -2.73807        2.69702
H          2.50776       -4.40357        1.38526
H          2.07441       -6.58700        2.00393
H          1.05018       -5.65019        3.07653
H         -0.93270       -6.15345        1.71358
H         -0.35111       -7.82367        3.40954
H          0.76023       -8.62950        2.30592
H         -2.27375       -8.41937        2.02259
H         -1.33762       -9.87155        2.36723
H         -2.05476       -9.75247       -0.02478
H         -0.30276       -9.80971        0.14571
H         -1.99799       -7.31710       -0.38623
H         -0.91767       -8.12139       -1.52423
H          1.02880       -7.62986       -0.11557
H         -0.64189       -5.09132       -0.56772
H          0.31495       -5.91722       -1.78798
H          2.26423       -5.57563       -0.51903
