36

C          0.95071        0.32217        0.16919
C          0.51653        0.74805       -1.22639
C          0.99599       -0.19551       -2.33310
C          0.55998       -1.65679       -2.17808
C         -0.96400       -1.91304       -2.17992
C         -1.65748       -1.44715       -3.47947
C         -1.21941       -2.17295       -4.74602
C         -1.28347       -3.39627       -1.89733
O         -0.94071       -3.76438       -0.55026
C          0.23410       -4.40864       -0.36846
O          1.06134       -4.61210       -1.24373
N          0.50192       -4.82976        0.92194
S         -0.46140       -4.75899        2.23087
N         -0.20599       -6.33499        2.73106
O          0.13834       -3.91820        3.23227
O         -1.85602       -4.71475        1.88363
H          0.45286       -0.60146        0.48006
H          0.69037        1.09651        0.89771
H          2.03300        0.16412        0.21439
H         -0.57392        0.84631       -1.25526
H          0.92357        1.74643       -1.42700
H          0.66943        0.19423       -3.30344
H          2.09329       -0.17220       -2.35645
H          1.03127       -2.24466       -2.97498
H          0.99381       -2.02803       -1.24509
H         -1.39499       -1.33436       -1.35277
H         -2.74139       -1.57803       -3.36765
H         -1.50285       -0.37136       -3.61810
H         -1.45227       -3.24082       -4.69816
H         -1.74839       -1.76242       -5.61247
H         -0.14767       -2.05880       -4.92977
H         -2.36443       -3.55798       -1.98298
H         -0.80914       -4.06528       -2.62405
H          1.46423       -5.07752        1.11347
H         -0.49583       -6.41951        3.70658
H         -0.76303       -6.95752        2.14372
