32

C          0.62747       -1.74227       -1.10916
C         -0.76831       -1.69935       -1.08919
C         -1.43311       -1.40889        0.10854
C         -0.72292       -1.48927        1.31484
C          0.67396       -1.53273        1.29499
C          1.34775       -1.49378        0.06823
C          2.73106       -0.86839       -0.02091
C          2.77705        0.70648        0.03297
C          1.43302        1.41169       -0.06104
C          0.76710        1.48985       -1.29035
C         -0.62984        1.52816       -1.31514
C         -1.34789        1.48957       -0.11155
C         -0.67157        1.74079        1.08875
C          0.72424        1.70200        1.11364
C         -2.73347        0.86487       -0.07895
C         -2.77966       -0.70422        0.07107
H          1.13509       -1.76290       -2.07049
H         -1.30563       -1.68769       -2.03430
H         -1.22693       -1.30951        2.26135
H          1.21651       -1.38453        2.22541
H          3.21033       -1.19730       -0.95248
H          3.36231       -1.27138        0.78154
H          3.27137        1.00690        0.96631
H          3.43369        1.07177       -0.76713
H          1.30341        1.31008       -2.21874
H         -1.14009        1.37808       -2.26357
H         -1.21206        1.76067        2.03181
H          1.22873        1.69301        2.07689
H         -3.30955        1.31275        0.74151
H         -3.27438        1.14796       -0.99137
H         -3.33951       -0.95509        0.98148
H         -3.37798       -1.11773       -0.75153
