12

C          0.92954        0.06979        0.01876
N          0.43765        1.31916       -0.57604
C         -1.03085        1.32714       -0.56488
N          0.91395        2.43245        0.22242
H          0.58845       -0.79133       -0.56682
H          0.59410       -0.06145        1.05464
H          2.02542        0.04474        0.00649
H         -1.44247        1.24475        0.44831
H         -1.41270        2.24986       -1.01710
H         -1.42110        0.49754       -1.16510
H          1.93678        2.47238        0.19571
H          0.61778        3.31835       -0.19698
