39

C         -0.74687        0.01996       -1.06811
C          0.34615       -0.83524       -1.72942
C          1.62400        0.01136       -1.87640
C          2.90635       -0.67781       -1.41723
O          3.38492       -0.30402       -0.09574
C          2.59058       -0.27855        0.99390
O          1.42319       -0.59173        1.11676
C          3.32582        0.21526        2.16378
C          3.26520       -0.53741        3.34232
C          3.78199       -0.01247        4.52407
C          4.34019        1.26646        4.52751
C          4.40123        2.01474        3.34818
C          3.89736        1.48931        2.15779
C          2.90051       -2.17851       -1.70731
C          1.64217       -2.92883       -1.22512
C          1.95917       -3.66882        0.09068
C          1.23354       -3.99235       -2.26293
N          0.50064       -2.06335       -0.97031
H         -1.62907       -0.57325       -0.80602
H         -1.06994        0.81854       -1.74421
H         -0.39050        0.50043       -0.14957
H         -0.01497       -1.10147       -2.73075
H          1.73077        0.21513       -2.95232
H          1.53400        0.99040       -1.39214
H          3.69980       -0.26344       -2.05508
H          2.78208       -1.51232        3.34216
H          3.72002       -0.58654        5.44494
H          4.71142        1.68939        5.45787
H          4.81473        3.01986        3.36607
H          3.90160        2.08786        1.25111
H          3.80621       -2.63577       -1.28986
H          2.97437       -2.28626       -2.79905
H          1.05626       -4.09548        0.54360
H          2.65737       -4.49643       -0.08180
H          2.42071       -3.01068        0.83232
H          0.93549       -3.53500       -3.21312
H          2.06379       -4.67793       -2.47009
H          0.39124       -4.59766       -1.90617
H         -0.37289       -2.57239       -0.86237
