36

C          1.56849       -0.17561        0.34851
C          2.41495        1.08044        0.19890
C          1.88531        1.90096       -0.78910
C          1.87679        3.15977       -0.13881
O          2.19267        4.24671       -0.56334
O          1.29831        2.74361        1.01445
C          2.48600        2.69100        1.76408
C          2.38690        3.89409        2.56536
C          3.28646        4.36582        3.47446
C          4.28233        3.46593        3.70316
C          4.24970        2.14226        2.76389
C          3.40837        1.63116        1.57411
C          5.14116        3.95930        4.94015
C          5.48073        5.49027        4.83668
C          4.32529        6.34653        4.33262
N          3.08939        5.59438        4.12154
C          2.04012        6.43308        3.48842
C          0.79789        5.63906        3.20609
C          1.21153        4.71993        2.15732
H          0.90159       -0.56786       -0.45568
H          0.85928        0.00779        1.16923
H          2.29773       -0.95425        0.47751
H          1.04622        1.88735       -1.50932
H          5.07350        1.47821        3.10347
H          6.07176        3.42299        5.15536
H          4.54013        3.89045        5.87207
H          6.32026        5.62476        4.14452
H          5.83355        5.92689        5.78851
H          4.11988        7.18160        5.02055
H          4.62372        6.81632        3.38510
H          1.74668        7.26749        4.11977
H          2.44871        6.84029        2.54818
H          0.43100        5.04100        4.04520
H         -0.01192        6.20347        2.74332
H          0.32413        4.10850        1.98695
H          1.49512        5.26177        1.25158
