42

C          2.13664        0.73867        0.21387
C          1.60463       -0.27735       -0.74772
O          0.99757       -0.00589       -1.77321
O          1.89853       -1.53242       -0.31120
C          1.40412       -2.57893       -1.14818
C          1.18346       -3.85148       -0.34131
C          0.56325       -3.86352        0.85744
C          0.01307       -2.59304        1.42108
O          0.32631       -2.07114        2.47398
O         -0.97477       -2.11973        0.63698
N          0.22377       -5.00030        1.55498
C         -1.10683       -5.26869        1.79600
O         -2.00117       -4.59744        2.26144
C         -1.02661       -6.53203        0.86448
N         -1.54365       -6.24030       -0.50396
C         -2.42193       -6.94968       -1.26785
O         -2.72366       -6.50059       -2.37459
C         -2.98657       -8.25183       -0.74709
C         -1.98871       -9.36645       -0.85009
C         -0.89274       -9.50313       -1.68175
C         -0.20810      -10.73601       -1.48226
C         -0.81247      -11.51108       -0.51959
S         -2.18282      -10.74557        0.15334
C          0.49739       -6.35990        1.10393
S          1.62367       -6.62577       -0.25334
C          1.60366       -5.06567       -1.10661
H          1.68639        0.59004        1.19843
H          1.87651        1.74039       -0.14004
H          3.22481        0.65873        0.26921
H          0.46180       -2.31782       -1.64643
H          2.15986       -2.74273       -1.92506
H         -1.37072       -1.39393        1.16326
H         -1.44430       -7.43295        1.31945
H         -1.30881       -5.35507       -0.94226
H         -3.33486       -8.10166        0.28066
H         -3.87123       -8.49762       -1.34713
H         -0.58931       -8.75732       -2.40862
H          0.67552      -11.04311       -2.02834
H         -0.51748      -12.49436       -0.17991
H          0.82254       -6.96248        1.96565
H          2.62672       -4.91972       -1.47262
H          0.96542       -5.17107       -1.99101
