59

C         -0.46487       -0.15428        0.27609
O         -0.31755       -1.10796        1.33300
C         -0.29786       -2.41935        0.97400
O         -0.65197       -2.84418       -0.12329
C          0.24667       -3.34102        2.06788
N          0.83833       -2.65784        3.23292
C         -0.08682       -2.28238        4.32706
C         -0.35881       -3.35064        5.38842
O         -0.71563       -3.07272        6.52829
O         -0.19415       -4.61916        4.91329
C         -0.21814       -5.64872        5.90664
C          2.21351       -2.61951        3.45133
C          2.74958       -3.11228        4.65788
C          4.08830       -2.95887        5.05327
N          4.53744       -3.34192        6.35092
C          3.77734       -3.88074        7.37873
C          4.51292       -3.99575        8.69044
O          2.60918       -4.24215        7.31836
C          4.99155       -2.34949        4.16297
N          6.35749       -2.17585        4.54630
N          7.09806       -2.18723        3.53920
C          8.46691       -2.05684        3.84296
C          9.14476       -0.85805        3.53985
Br         8.20131        0.67376        2.91803
C         10.54002       -0.74636        3.65067
C         11.28939       -1.84862        4.07510
N         12.75603       -1.75965        4.12592
O         13.28059       -0.71002        3.73290
O         13.37252       -2.74646        4.54732
C         10.65348       -3.04502        4.41679
C          9.25446       -3.13227        4.28788
N          8.63640       -4.40828        4.60994
O          9.00157       -4.94748        5.66350
O          7.83287       -4.88727        3.80276
C          4.48705       -1.87916        2.92959
C          3.13184       -2.01769        2.57629
O          2.70476       -1.32757        1.46689
C          2.78064       -2.09936        0.27164
H         -1.29364        0.51625        0.51554
H         -0.63796       -0.60092       -0.70773
H          0.45598        0.43550        0.22840
H         -0.60098       -3.95396        2.39647
H          0.97448       -4.01916        1.60976
H          0.31202       -1.39634        4.83576
H         -1.05821       -2.00385        3.90368
H          0.78977       -5.78784        6.30670
H         -0.92202       -5.44040        6.71750
H         -0.52078       -6.58101        5.42217
H          2.08236       -3.63392        5.32390
H          5.51027       -3.13669        6.54266
H          3.97795       -3.40613        9.44225
H          4.52527       -5.04508        8.99866
H          5.53953       -3.63074        8.62829
H         11.03170        0.18846        3.38087
H         11.22871       -3.91055        4.74673
H          5.14463       -1.34008        2.25194
H          2.76496       -3.17951        0.44699
H          1.91277       -1.83799       -0.34091
H          3.66834       -1.82343       -0.30191
