42

C          0.55990        0.55469        0.04717
O         -0.06023        0.17134        1.26704
C          0.59960       -0.84323        2.02511
C         -0.02449       -2.27194        1.83988
C         -1.16787       -2.27203        0.81591
O         -1.76742       -3.57592        0.68138
C         -1.59626       -4.39812       -0.38570
N         -0.61926       -4.06912       -1.27534
O         -2.26686       -5.40601       -0.54726
C          1.17875       -3.07066        1.41536
C          2.28155       -2.32617        1.31362
C          3.61605       -2.90087        0.95917
O          4.63920       -2.22508        1.05966
C          3.65494       -4.31028        0.39022
C          4.69146       -5.16083        1.11058
C          2.33096       -5.02758        0.37736
N          2.05765       -5.99057       -0.44637
C          1.26351       -4.52252        1.32816
O          0.54038       -5.27716        1.94900
N          2.04044       -0.99142        1.64266
C          2.89366       -0.27805        2.62355
C          2.00970       -0.01426        3.81349
N          1.35060       -1.10970        4.53085
C          0.61663       -0.39573        3.47179
H         -0.11790        1.23449       -0.47667
H          0.73986       -0.30841       -0.60075
H          1.49274        1.09373        0.23603
H         -0.39297       -2.67448        2.79198
H         -1.97020       -1.62029        1.18199
H         -0.87645       -1.87312       -0.15895
H         -0.38651       -4.81127       -1.92478
H          0.06015       -3.34605       -1.14024
H          3.95333       -4.19888       -0.66121
H          4.71702       -6.17989        0.70907
H          5.69319       -4.73241        0.99892
H          4.47379       -5.22847        2.18183
H          2.86571       -6.23904       -1.02658
H          3.77601       -0.84752        2.92923
H          3.22014        0.66983        2.18345
H          2.22426        0.89416        4.35513
H          1.03805       -0.80257        5.45449
H         -0.21871        0.21944        3.77198
