32

C         -0.56552       -0.59936        0.24949
C         -0.44838        0.67363        1.02348
C         -0.37169        1.88251        0.44583
C         -0.22839        3.18661        1.15202
O         -0.16247        4.22909        0.50720
C         -0.14134        3.19541        2.63600
C         -1.28185        3.19297        3.36510
C         -2.68354        3.17101        2.81523
C         -1.20417        3.26915        4.81720
C         -0.05077        3.08044        5.47153
C          1.22922        2.79960        4.74005
C          1.24693        3.32137        3.26996
C          1.64950        4.81329        3.26451
C          2.33350        2.52899        2.51430
H         -0.57923       -0.42804       -0.83158
H         -1.48707       -1.12060        0.52514
H          0.28212       -1.25233        0.47947
H         -0.41951        0.56579        2.10464
H         -0.40083        1.98506       -0.63561
H         -3.21869        2.28569        3.17624
H         -3.23378        4.06162        3.13960
H         -2.72302        3.15231        1.72310
H         -2.11697        3.46817        5.37362
H         -0.02629        3.11193        6.55677
H          1.38589        1.71279        4.76532
H          2.06195        3.24274        5.30085
H          2.62654        4.95964        3.73958
H          1.72477        5.20545        2.24379
H          0.92452        5.43323        3.80414
H          2.08795        1.46264        2.46134
H          2.47098        2.89498        1.49080
H          3.30238        2.61552        3.02036
