31

C          0.90602        0.19295        0.32256
C          0.52056        1.57683       -0.19001
C          0.97062        1.91578       -1.63528
C          0.33633        0.95023       -2.66171
C          0.42354        3.29240       -2.09620
O          0.83899        3.95841       -3.03518
O         -0.68958        3.69544       -1.44629
N          2.44833        1.95963       -1.75691
C          3.25054        0.86154       -1.94093
O          2.95710       -0.30633       -2.10778
C          4.63401        1.31091       -1.82993
C          5.81695        0.61705       -1.99721
C          7.00557        1.33936       -1.85940
C          6.98082        2.71703       -1.55878
C          5.76798        3.38584       -1.35605
C          4.60872        2.64633       -1.48943
C          3.20722        3.01179       -1.30078
O          2.85068        4.04361       -0.76231
H          0.55721       -0.60253       -0.34156
H          0.44597        0.01937        1.30125
H          1.98740        0.09746        0.44977
H         -0.57263        1.64736       -0.12038
H          0.91695        2.32557        0.50745
H         -0.75797        1.01680       -2.63894
H          0.65453        1.20335       -3.68132
H          0.59909       -0.09611       -2.49531
H         -0.90880        4.55465       -1.86483
H          5.81767       -0.44350       -2.22740
H          7.96148        0.83474       -1.98986
H          7.91936        3.26308       -1.47748
H          5.73632        4.44319       -1.11393
