29

O         -2.31359        0.41258       -0.52667
C         -1.09156        0.25345       -0.50915
C         -0.48653       -1.12086       -0.39140
C          1.03258       -1.05554       -0.50804
N          1.67578       -0.01945        0.29588
C          2.25334       -0.46238        1.57425
C          1.26086       -0.90338        2.63144
C          0.80693       -0.00370        3.60811
C         -0.17776       -0.38140        4.52275
C         -0.71590       -1.66515        4.47768
C         -0.24648       -2.58222        3.54080
C          0.74845       -2.20928        2.63546
C          0.97347        1.26416        0.35642
C         -0.14507        1.41290       -0.66652
H         -0.80294       -1.54776        0.56181
H         -0.88592       -1.74314       -1.19926
H          1.28085       -0.84249       -1.55700
H          1.47146       -2.04301       -0.32134
H          2.96128       -1.28148        1.38983
H          2.87780        0.34438        1.98195
H          1.20521        1.00773        3.65079
H         -0.53539        0.33141        5.26126
H         -1.50155       -1.95063        5.17210
H         -0.66637       -3.58399        3.50361
H          1.09524       -2.93690        1.90572
H          1.70483        2.06588        0.19983
H          0.53364        1.43580        1.34347
H          0.23405        1.42234       -1.69336
H         -0.69012        2.34632       -0.49085
