44

C          0.52061       -0.38646        0.25051
C          0.75519        1.07079       -0.09264
O          2.05434        1.19116       -0.64187
P          2.58690        2.65010       -1.08474
O          1.79682        3.25177       -2.20596
C          2.62538        3.65461        0.40301
C          3.41505        3.26601        1.63029
C          3.73321        1.94213        1.94770
C          4.37770        1.62541        3.15146
C          4.72481        2.62592        4.06794
C          5.37266        2.35698        5.36359
N          5.31585        3.18923        6.38455
C          6.05596        2.70699        7.44653
C          6.21936        3.34491        8.69204
C          7.01899        2.75429        9.67465
C          7.64911        1.53784        9.43127
C          7.49333        0.88022        8.20639
C          6.69081        1.48561        7.22541
S          6.31430        0.94271        5.63742
C          4.40965        3.95274        3.73987
C          3.76333        4.26938        2.54320
O          4.12548        2.33327       -1.45619
C          4.99654        3.38534       -1.82839
C          4.91582        3.65814       -3.31617
H          0.47464       -0.99151       -0.66063
H         -0.41345       -0.51352        0.80450
H          1.34639       -0.78118        0.85281
H          0.01025        1.42717       -0.80982
H          0.68678        1.67028        0.81937
H          2.97757        4.64172        0.07805
H          1.58636        3.80373        0.72129
H          3.48250        1.12030        1.28241
H          4.57809        0.57685        3.36054
H          5.72633        4.29469        8.87369
H          7.14898        3.25349       10.63190
H          8.27270        1.09142       10.20309
H          7.98572       -0.06893        8.01858
H          4.65997        4.75633        4.43159
H          3.52163        5.31137        2.34123
H          4.78210        4.29225       -1.25691
H          6.01266        3.07030       -1.57032
H          3.93653        4.06316       -3.58692
H          5.67947        4.38201       -3.61608
H          5.05433        2.73682       -3.89033
