82

C         -2.31773        0.08883       -0.68236
C         -1.51373       -0.42305        0.54496
C         -2.36777        0.26739        1.66977
C         -1.67062       -1.93958        0.60375
C         -0.41186       -2.61806        1.09983
N         -0.07326       -2.39736        2.53945
C          0.30250       -3.56339        3.21117
O          0.41274       -3.71600        4.42537
C         -0.39320       -1.14757        3.35166
C          0.37060        0.31734        3.48844
C          0.76237        1.62255        2.58449
C         -0.18254        2.58275        1.78379
C          0.48405        3.80172        1.04327
C          1.55928        3.58091       -0.08015
N          1.19636        3.88546       -1.50030
C          0.91107        5.21299       -1.82143
O          0.71399        5.66263       -2.94337
C          1.37342        2.92415       -2.66812
C          0.15548        2.00556       -2.81427
C          0.29769        0.89977       -3.88572
C         -0.70889       -0.23206       -3.61099
C         -0.03803        1.42071       -5.28761
N          1.58887        0.22518       -3.82662
C          2.81518        1.01141       -3.75827
C          3.91836        0.00435       -3.32841
C          3.22168        1.47000       -5.16455
C          2.73716        2.19829       -2.74649
C          0.72737       -2.28544        0.13503
C          1.15630       -0.88463        0.46768
C          2.05246       -0.27365       -0.59000
C          2.25761       -1.01402        1.60587
N         -0.06734        0.00109        0.50755
H         -2.16584        1.16172       -0.85436
H         -2.09825       -0.46151       -1.58347
H         -3.39865       -0.05194       -0.52795
H         -1.79855        0.65370        2.50513
H         -2.91185        1.15405        1.32023
H         -3.12726       -0.41237        2.07491
H         -2.53009       -2.25787        1.20083
H         -1.86217       -2.32316       -0.41095
H         -0.59093       -3.69257        0.95611
H          0.51276       -4.40155        2.52436
H         -1.47744       -1.07062        3.38094
H         -0.21348       -1.50170        4.37750
H         -0.20227        0.77915        4.30712
H          1.33088        0.05628        3.95868
H          1.22517        2.29056        3.32842
H          1.59513        1.39757        1.92861
H         -0.76296        2.09921        1.00985
H         -0.91929        2.98477        2.48966
H         -0.32809        4.41897        0.63791
H          0.95458        4.40508        1.83129
H          2.35157        4.31379        0.13860
H          2.02873        2.61211        0.00122
H          0.87167        5.86694       -0.93489
H          1.35649        3.54136       -3.57552
H         -0.72599        2.62327       -3.03998
H         -0.05903        1.56937       -1.84453
H         -0.67438       -1.01683       -4.37622
H         -0.48118       -0.72765       -2.66197
H         -1.73558        0.15017       -3.58778
H          0.54152        2.30219       -5.55993
H          0.13158        0.64469       -6.04414
H         -1.09622        1.70235       -5.35113
H          1.65442       -0.52021       -4.51916
H          4.26438       -0.60859       -4.16954
H          4.78578        0.51236       -2.89546
H          3.56709       -0.72191       -2.59577
H          4.27130        1.78227       -5.18018
H          3.12660        0.64425       -5.88380
H          2.62343        2.30477       -5.52640
H          3.50061        2.94150       -3.01529
H          3.04123        1.86278       -1.75737
H          1.55496       -2.99810        0.23643
H          0.40347       -2.35362       -0.91357
H          2.35987        0.71967       -0.26445
H          2.97965       -0.83567       -0.72048
H          1.53847       -0.19961       -1.53281
H          3.07394       -1.66430        1.25298
H          2.76635       -0.08090        1.85682
H          1.96591       -1.48266        2.53672
H          0.01758        0.68149       -0.24121
