20

O          1.21885        0.26616        0.55784
C          2.35136        0.22694        0.13147
O          3.12325        1.28278       -0.22047
C          4.30886        0.83971       -0.90572
C          5.50847        1.74027       -0.56278
O          6.64471        1.30175       -1.31098
C          5.23797        3.21953       -0.87306
O          4.30938        3.79591        0.03810
C          4.53694       -0.63447       -0.56571
O          5.50957       -0.84365        0.44926
C          3.18489       -1.01507       -0.07198
O          2.83751       -2.13887        0.24471
H          4.09287        0.92003       -1.98021
H          5.73762        1.66976        0.50794
H          7.03309        0.55771       -0.80973
H          6.17025        3.79035       -0.80165
H          4.86504        3.35202       -1.89431
H          3.48384        3.27811       -0.00102
H          4.81395       -1.20896       -1.45427
H          5.39173       -1.75828        0.77872
