34

O          1.08488       -0.31825       -0.15818
C          2.27748       -0.04922       -0.04391
O          3.03292        0.07001       -1.16158
C          2.98202        0.22142        1.32898
C          2.40529        1.61424        1.81180
C          0.89725        1.85069        1.91840
Br         0.02896        0.96967        3.40260
C          2.70559       -0.91368        2.35949
C          2.98429       -0.72663        3.72862
C          2.84173       -1.77016        4.64797
C          2.46222       -3.03638        4.21604
C          2.20747       -3.25644        2.86737
C          2.31760       -2.20681        1.95116
C          4.54691        0.29948        1.13776
C          5.29270       -0.88848        0.95505
C          6.67407       -0.86590        0.75010
C          7.34913        0.34595        0.70054
C          6.64196        1.53261        0.85753
C          5.25919        1.51218        1.07607
H          3.98431        0.24319       -1.02532
H          2.87921        1.91636        2.75450
H          2.71641        2.36478        1.07166
H          0.73045        2.91598        2.11902
H          0.34372        1.61580        1.00924
H          3.32061        0.23592        4.10563
H          3.03818       -1.59341        5.70227
H          2.37049       -3.85171        4.92820
H          1.92867       -4.24865        2.52137
H          2.12303       -2.43709        0.90520
H          4.81191       -1.86489        0.97866
H          7.21972       -1.79985        0.63616
H          8.42481        0.36525        0.54567
H          7.16988        2.48302        0.81689
H          4.77583        2.47751        1.19468
