16

N          0.83544       -0.12345       -0.09046
C          0.25427       -0.61815        0.94509
N          1.08885       -1.01592        1.94667
C          0.47556       -1.54204        2.94953
O          1.17153       -1.99600        4.01260
C         -0.98738       -1.74334        3.12632
O         -1.47278       -2.38638        4.24565
C         -1.74655       -1.28810        2.10508
N         -3.12686       -1.36715        2.14486
N         -1.09899       -0.73722        1.03132
H          1.83658       -0.16734        0.14312
H          0.56950       -2.37272        4.67936
H         -2.38934       -2.63445        4.01548
H         -3.49830       -1.09680        3.05449
H         -3.54897       -0.77941        1.42852
H         -1.62033       -0.47755        0.20921
