173

C          1.19517       -0.45007        0.35426
C          1.04849        0.83117        1.16029
C          1.48487        2.07096        0.37635
C          0.69532        2.30043       -0.91603
C         -0.81220        2.44986       -0.68997
C         -1.17035        3.67191        0.16098
C         -0.74486        4.99016       -0.49165
C         -1.40013        5.19961       -1.86031
C         -2.92758        5.27544       -1.76182
C         -3.38773        6.45521       -0.90083
C         -2.86172        7.78727       -1.44036
C         -3.35439        8.04665       -2.86686
C         -4.87519        8.20111       -2.91649
C         -5.34718        9.35572       -2.03207
C         -4.66523       10.66823       -2.43066
C         -4.97990       11.09524       -3.87727
C         -6.43747       10.91721       -4.31134
C         -7.38629       11.81155       -3.57020
O         -8.43442       12.16938       -4.08179
O         -6.88730       12.11360       -2.35282
C         -7.46550       12.85016       -1.25645
C         -7.73475       14.31060       -1.57875
C         -8.59495       14.59545       -2.80087
O         -9.97520       14.18252       -2.74690
C        -10.51982       13.04447       -2.25672
O         -9.97743       11.97625       -2.02866
C        -11.98372       13.26556       -1.98922
C        -12.23874       14.46215       -1.06844
C        -11.74529       15.81485       -1.60366
C        -12.23546       16.08155       -3.02906
C        -13.75495       16.20613       -3.05097
C        -14.22090       17.34613       -2.14211
C        -13.60197       18.68455       -2.56387
C        -13.99619       19.05123       -3.99769
C        -15.51789       19.10576       -4.16049
C        -16.14840       20.13212       -3.21406
C        -15.68244       21.55570       -3.52988
C        -16.08032       21.99233       -4.94251
C        -17.59519       21.94780       -5.16491
C        -18.35864       22.89636       -4.23593
C        -18.00328       24.37050       -4.45207
C        -18.25243       24.86520       -5.87867
C        -19.70806       24.72604       -6.29612
O         -8.18669       15.15349       -0.48518
C         -9.13121       14.73895        0.39071
O         -9.53321       13.59388        0.53351
C         -9.62620       15.89056        1.22234
C         -8.89214       15.90570        2.55031
C         -7.40462       16.22410        2.38135
C         -7.14994       17.64308        1.86011
C         -7.65242       18.72801        2.81767
C         -7.07620       18.58173        4.22965
C         -5.54390       18.61074        4.24354
C         -4.98199       19.95578        3.77579
C         -5.40238       21.11330        4.68572
C         -4.93312       20.92622        6.13235
C         -3.40675       20.88121        6.25827
C         -2.73267       22.17967        5.80400
C         -3.18580       23.40460        6.60468
C         -2.84798       23.31337        8.09609
C         -1.34455       23.25672        8.38536
C         -0.55754       24.45840        7.85691
C         -1.03148       25.77672        8.44889
H          0.53782       -0.45533       -0.52077
H          0.93030       -1.31587        0.96716
H          2.22654       -0.57305        0.00958
H          0.01145        0.93406        1.49936
H          1.65827        0.75589        2.06722
H          1.40049        2.94963        1.02711
H          2.54890        1.98677        0.12701
H          1.09508        3.18725       -1.42118
H          0.87063        1.47644       -1.61553
H         -1.31269        2.50182       -1.66325
H         -1.22279        1.55202       -0.21773
H         -2.25021        3.67099        0.34753
H         -0.71471        3.59889        1.15356
H         -0.98706        5.81761        0.18446
H          0.34315        5.03422       -0.60254
H         -0.99121        6.10672       -2.31792
H         -1.12221        4.40292       -2.55664
H         -3.34981        5.34377       -2.77007
H         -3.34388        4.34844       -1.35622
H         -4.48176        6.45907       -0.84880
H         -3.06209        6.33224        0.13709
H         -3.15578        8.59283       -0.76013
H         -1.76817        7.81851       -1.42511
H         -2.85610        8.93585       -3.26538
H         -3.05153        7.24973       -3.55164
H         -5.17798        8.35601       -3.95687
H         -5.37968        7.27913       -2.60911
H         -6.43870        9.43595       -2.08269
H         -5.14793        9.14926       -0.97486
H         -4.93098       11.44249       -1.70621
H         -3.57907       10.61202       -2.31163
H         -4.68747       12.14449       -4.00260
H         -4.35364       10.51516       -4.56414
H         -6.51578       11.16909       -5.37491
H         -6.79782        9.89014       -4.20186
H         -8.25878       12.27049       -0.79593
H         -6.69540       12.84152       -0.47163
H         -6.74784       14.72852       -1.82463
H         -8.65545       15.69015       -2.87937
H         -8.13107       14.30887       -3.74431
H        -12.50601       13.34538       -2.94686
H        -12.37020       12.36450       -1.49973
H        -13.31460       14.52248       -0.87227
H        -11.78872       14.27893       -0.09148
H        -12.04782       16.60620       -0.91221
H        -10.65951       15.90242       -1.57280
H        -11.74850       16.98061       -3.42187
H        -11.93324       15.29576       -3.72784
H        -14.09072       16.35261       -4.08260
H        -14.22583       15.27000       -2.73431
H        -15.31353       17.38624       -2.14698
H        -13.97568       17.14737       -1.09455
H        -13.90511       19.46320       -1.85745
H        -12.51002       18.66691       -2.48220
H        -13.53414       20.00538       -4.26954
H        -13.58210       18.33239       -4.71333
H        -15.76438       19.31788       -5.20470
H        -15.96663       18.12377       -3.97682
H        -17.23809       20.05090       -3.26528
H        -15.91556       19.90305       -2.16892
H        -16.08958       22.24260       -2.78140
H        -14.59561       21.64098       -3.42162
H        -15.68858       22.99637       -5.13220
H        -15.59191       21.35782       -5.69048
H        -17.81066       22.17522       -6.21337
H        -17.97530       20.93003       -5.02274
H        -19.43388       22.74292       -4.37434
H        -18.17090       22.63755       -3.18742
H        -18.58370       24.97871       -3.74903
H        -16.95104       24.54313       -4.19566
H        -17.95930       25.91864       -5.94239
H        -17.61428       24.32949       -6.59066
H        -20.36137       25.25958       -5.59891
H        -19.85702       25.14128       -7.29641
H        -20.02218       23.67803       -6.32695
H         -9.53012       16.82877        0.66536
H        -10.70123       15.75965        1.38537
H         -9.37239       16.62595        3.22139
H         -8.99094       14.92736        3.03506
H         -6.90132       16.06688        3.34078
H         -6.93202       15.50583        1.70360
H         -6.07568       17.76582        1.68144
H         -7.61253       17.79019        0.87889
H         -7.40526       19.71207        2.40376
H         -8.74635       18.70981        2.87287
H         -7.48933       19.36787        4.86962
H         -7.42096       17.64868        4.68812
H         -5.18936       18.36916        5.25060
H         -5.13132       17.81493        3.61480
H         -3.89036       19.88786        3.71964
H         -5.30210       20.17122        2.75069
H         -5.01855       22.05139        4.27194
H         -6.49110       21.23155        4.67580
H         -5.34887       21.72841        6.75014
H         -5.35334       20.00944        6.55925
H         -3.14011       20.65549        7.29599
H         -2.99907       20.04658        5.67720
H         -1.64619       22.06049        5.87026
H         -2.93333       22.35701        4.74135
H         -2.73912       24.30265        6.16593
H         -4.26628       23.55024        6.49555
H         -3.29600       24.16800        8.61423
H         -3.32554       22.43209        8.53958
H         -1.19977       23.17907        9.46933
H         -0.91774       22.33994        7.96132
H          0.50156       24.31864        8.10047
H         -0.61461       24.50602        6.76366
H         -0.97705       25.75178        9.54168
H         -0.40518       26.59902        8.09183
H         -2.06304       26.00169        8.16104
