27

C          1.19379        0.00449        0.47692
C          0.97023        0.50608       -0.93210
O          1.50042       -0.45207       -1.86233
C          2.56549       -0.05558       -2.61046
O          3.20491        0.97181       -2.41174
C          2.75378       -0.92146       -3.85934
N          2.36323       -2.31900       -3.77191
C          3.36382       -3.27247       -3.60405
O          4.57071       -3.08618       -3.62557
S          2.65878       -4.86200       -3.32510
C          1.02504       -4.18748       -3.36665
C         -0.13943       -4.89974       -3.11009
C         -1.35288       -4.22506       -3.15883
C         -1.38269       -2.87146       -3.51148
C         -0.19995       -2.16620       -3.79404
Cl        -0.40177       -0.54375       -4.34418
C          1.03057       -2.81743       -3.66960
H          0.74967       -0.98796        0.60503
H          0.74900        0.68705        1.20658
H          2.26372       -0.09057        0.68465
H         -0.10483        0.58652       -1.12879
H          1.39397        1.50776       -1.06248
H          2.24293       -0.45222       -4.70272
H          3.82495       -0.87246       -4.09063
H         -0.10423       -5.95694       -2.86195
H         -2.27878       -4.75145       -2.93804
H         -2.34572       -2.36701       -3.57115
