9

C          1.04154        0.09512        0.02406
N          0.56364        0.77103       -1.18312
N         -0.88207        0.77639       -1.17275
H          0.70811       -0.94786        0.05292
H          0.70247        0.60562        0.93200
H          2.13607        0.09103        0.02741
H          0.93189        1.72872       -1.17234
H         -1.24443        1.23423       -2.01504
H         -1.24702       -0.17995       -1.22812
