33

O          0.85945       -0.29440        0.58630
C          2.01686       -0.05427        0.28164
O          2.66275       -0.66095       -0.73394
C          2.86551        0.87880        1.05632
C          2.68746        0.94104        2.44320
C          3.48522        1.80383        3.18333
O          3.35031        1.91580        4.54042
C          4.45776        2.59010        2.55961
O          5.23352        3.41474        3.32861
C          4.62396        2.54276        1.17472
O          5.61451        3.39415        0.61848
C          6.02993        3.31800       -0.69957
O          5.66160        2.53925       -1.56487
C          7.00187        4.38771       -0.98767
C          8.13813        4.56979       -0.18940
C          9.09675        5.48994       -0.60332
O         10.25692        5.68707        0.09662
C          8.92013        6.23027       -1.77557
O          9.89830        7.10439       -2.16491
C          7.77486        6.06181       -2.54837
O          7.61462        6.79342       -3.68960
C          6.81428        5.13189       -2.16383
C          3.80265        1.70453        0.41758
H          3.62067       -0.48099       -0.80081
H          1.93214        0.31867        2.91649
H          2.59500        1.36844        4.82334
H          4.89895        3.29267        4.24065
H          8.27949        3.97442        0.70714
H         10.25672        5.10645        0.87710
H         10.60416        7.01058       -1.49752
H          6.78148        6.54946       -4.12174
H          5.93045        4.96061       -2.77255
H          3.84700        1.69737       -0.66509
