15

O          1.15892        0.32740        0.33622
C          2.32657        0.11337        0.05135
O          3.07698       -0.78509        0.71687
C          3.03880        0.91694       -0.97767
C          2.57154        2.23069       -1.16558
C          3.16314        3.07233       -2.11059
C          4.22244        2.60374       -2.88094
Cl         4.95511        3.63558       -4.04476
C          4.69087        1.30174       -2.71805
C          4.09854        0.45604       -1.77111
Cl         4.72935       -1.14917       -1.66292
H          3.98364       -0.91519        0.37715
H          1.73768        2.60492       -0.57073
H          2.78947        4.08573       -2.23975
H          5.51315        0.94457       -3.33439
