41

C          1.55949        0.53851        0.05763
C          0.87228        0.95738        1.12761
C         -0.62190        1.14489        1.18448
C         -1.25118        0.45331        2.37749
C         -1.43235        1.28089        3.51563
C         -1.91149        0.78708        4.72761
C         -2.20214       -0.56037        4.84495
C         -2.05193       -1.38941        3.73569
C         -1.61058       -0.90210        2.48873
O         -1.65950       -1.90297        1.55982
C         -1.53013       -1.67971        0.16379
C         -2.82468       -1.20221       -0.52489
O         -3.48465       -0.16479        0.21099
C         -2.54352       -0.64549       -1.93782
N         -1.94028       -1.61122       -2.85993
C         -1.70549       -1.03757       -4.19294
C         -0.49557       -0.09890       -4.21322
C         -1.47637       -2.19837       -5.16101
H          1.07316        0.29267       -0.88096
H          2.63949        0.42974        0.10269
H          1.42238        1.19870        2.03608
H         -0.80641        2.22582        1.25850
H         -1.11360        0.87933        0.25052
H         -1.18770        2.34137        3.45968
H         -2.04105        1.45375        5.57554
H         -2.55325       -0.96821        5.78829
H         -2.29737       -2.44582        3.83650
H         -0.65854       -1.07383       -0.06330
H         -1.28017       -2.65882       -0.26543
H         -3.53346       -2.03644       -0.58386
H         -3.64951       -0.52161        1.10353
H         -3.49226       -0.28088       -2.35238
H         -1.90465        0.23948       -1.83513
H         -1.05860       -1.96309       -2.49019
H         -2.59455       -0.49164       -4.53202
H          0.40528       -0.59683       -3.83688
H         -0.28710        0.23971       -5.23400
H         -0.66612        0.79470       -3.60466
H         -2.34255       -2.86934       -5.17897
H         -1.32456       -1.82698       -6.18022
H         -0.59550       -2.78820       -4.88293
