20

O          1.01673        0.15236       -0.31016
N          2.19404       -0.09802       -0.01678
O          2.78412        0.35173        0.97647
C          2.94290       -0.98907       -0.90757
C          2.45384       -1.25134       -2.19104
C          3.17235       -2.09893       -3.03664
C          4.37362       -2.69051       -2.61057
C          5.10214       -3.54495       -3.45262
C          6.29252       -4.13008       -3.01819
C          6.76998       -3.86900       -1.73733
C          6.05977       -3.02037       -0.88694
C          4.86117       -2.42272       -1.30768
C          4.13857       -1.56692       -0.46178
H          1.52669       -0.80628       -2.54597
H          2.78673       -2.29682       -4.03531
H          4.74737       -3.76338       -4.45771
H          6.84643       -4.79034       -3.68087
H          7.69663       -4.32575       -1.39870
H          6.45223       -2.83016        0.11008
H          4.51016       -1.35889        0.54018
