22

Cl        -2.10843       -0.00509       -0.08084
C         -0.38874       -0.00255       -0.03902
C          0.30153       -1.20009        0.12830
C          1.69891       -1.19667        0.16726
C          2.42070        0.00158        0.03085
C          3.89612        0.00364        0.06951
C          4.60349        0.49362        1.18962
Cl         3.78839        1.10319        2.59336
C          6.00226        0.49718        1.22656
C          6.72190        0.00421        0.14552
Cl         8.44093        0.00380        0.19216
C          6.06160       -0.48857       -0.97281
C          4.66285       -0.48550       -1.01122
Cl         3.92453       -1.09520       -2.45672
C          1.70310        1.19779       -0.14198
C          0.30546        1.19682       -0.17236
H         -0.23825       -2.13781        0.22871
H          2.22306       -2.14143        0.30004
H          6.52566        0.88077        2.09929
H          6.63136       -0.87213       -1.81605
H          2.23035        2.14406       -0.24828
H         -0.23154        2.13306       -0.29921
