18

N          0.68897        0.02322       -0.42562
C          0.21365        1.22484       -0.04238
O         -0.99569        1.42588        0.00083
N          1.09604        2.17280        0.35887
C          2.49017        2.28959        0.21255
C          3.25136        1.52582       -0.67481
C          4.63516        1.71492       -0.76941
C          5.27158        2.67758        0.01591
Cl         6.98130        2.85191       -0.14905
C          4.51493        3.46316        0.88858
Cl         5.22378        4.68205        1.88803
C          3.12990        3.27420        0.97643
H         -0.04756       -0.65478       -0.57937
H          1.46249       -0.33212        0.11860
H          0.61708        2.94225        0.81342
H          2.79376        0.80592       -1.34710
H          5.20796        1.11355       -1.47226
H          2.55514        3.89290        1.66234
