31

C         -0.56749       -0.02108        0.34291
C         -0.38631        0.59517       -1.03096
C          0.44097       -0.18449       -2.07440
O          0.46090       -1.60191       -1.99644
C          1.34992       -2.19070       -1.04355
C          2.79625       -2.41831       -1.49500
C          3.70125       -1.19183       -1.59268
O          3.89385       -0.58520       -0.31562
C          3.36838        0.72849       -0.20335
O          0.09198        0.25857       -3.41175
C         -1.07224        0.02670       -4.05169
C         -2.19259       -0.66300       -3.33205
O         -1.24042        0.45420       -5.19454
H         -1.04940       -1.00098        0.27894
H         -1.20529        0.62494        0.95484
H          0.37906       -0.11683        0.87900
H         -1.37960        0.82952       -1.41737
H          0.07886        1.58399       -0.91738
H          1.46389        0.16546       -1.98104
H          1.32613       -1.67810       -0.08437
H          0.92812       -3.18684       -0.85898
H          3.24996       -3.09043       -0.75285
H          2.80329       -2.93889       -2.45812
H          4.69257       -1.53473       -1.91256
H          3.36935       -0.48694       -2.35974
H          3.54772        1.32620       -1.10236
H          2.30054        0.67407        0.00414
H          3.83944        1.22648        0.64781
H         -2.81973        0.07977       -2.83173
H         -2.80939       -1.18887       -4.06778
H         -1.85030       -1.41205       -2.62112
