56

C          0.84804       -0.99547       -0.08098
C          0.20971       -1.23600        1.27905
C          0.55877       -0.16457        2.31115
C          0.19769        1.27300        1.90808
C         -1.30383        1.62966        1.78467
C         -2.07823        1.29280        3.09139
C         -1.60378        2.03124        4.34466
C         -1.69491        3.08548        1.34402
O         -1.00139        3.76647        0.29851
P          0.72861        3.76647        0.29852
S          0.59086        5.45669       -0.87150
S          0.92320        4.67420        2.41021
O          2.45861        3.76647        0.29852
C          3.10269        3.54719       -0.97886
C          2.69291        2.33179       -1.87921
C          1.20933        2.13566       -2.29947
C          0.67231        3.05809       -3.39185
C          3.52510        2.34372       -3.19283
C          5.03084        2.13563       -3.05852
C          5.44166        0.84487       -2.35308
C          4.83270       -0.40655       -2.96899
H          0.37169       -0.15415       -0.59161
H          0.72752       -1.87533       -0.71949
H          1.91866       -0.78482        0.01102
H         -0.87594       -1.31556        1.16750
H          0.56189       -2.20259        1.66039
H          0.10821       -0.42210        3.27439
H          1.64443       -0.19691        2.47931
H          0.67660        1.91008        2.65360
H          0.69923        1.45868        0.96160
H         -1.70033        0.97433        0.99720
H         -3.14234        1.51278        2.94598
H         -2.02285        0.21575        3.28531
H         -1.75052        3.11213        4.26338
H         -2.17668        1.69625        5.21578
H         -0.54805        1.84425        4.55944
H         -2.73685        3.03346        1.00264
H         -1.73677        3.76467        2.19774
H          0.16522        3.79125        3.05224
H          3.08217        4.47445       -1.55924
H          4.15757        3.41135       -0.71496
H          2.93256        1.43454       -1.29611
H          1.10901        1.11232       -2.68924
H          0.54120        2.13995       -1.44168
H          0.89400        2.65476       -4.38541
H         -0.41782        3.13964       -3.31569
H          1.09803        4.06176       -3.34855
H          3.13648        1.57916       -3.87853
H          3.37009        3.30190       -3.70741
H          5.45899        2.13575       -4.06975
H          5.48146        2.99124       -2.54376
H          6.53376        0.76386       -2.39662
H          5.17502        0.89611       -1.29207
H          5.04512       -0.46173       -4.04138
H          5.24737       -1.29947       -2.49185
H          3.74717       -0.43600       -2.83148
