33

C          1.24593       -0.12010        0.04102
C          0.58771       -1.41972        0.51511
C          1.07690       -1.74416        1.92935
C         -0.95434       -1.35243        0.50414
C         -1.54941       -1.13395       -0.86581
C         -1.75010        0.16474       -1.34604
C         -2.23444        0.37986       -2.63638
C         -2.54583       -0.69904       -3.47502
C         -3.02448       -0.48102       -4.90008
C         -4.27438        0.39682       -4.98387
C         -1.92166        0.05113       -5.79731
O         -1.31921       -0.59085       -6.64598
O         -1.60005        1.34314       -5.58159
C         -2.37281       -2.00032       -2.98035
C         -1.87669       -2.21565       -1.69036
H          0.87244        0.74304        0.60245
H          1.06031        0.05479       -1.02317
H          2.33272       -0.16198        0.17096
H          0.91666       -2.22771       -0.15113
H          0.77214       -0.96881        2.64097
H          0.67055       -2.70069        2.27342
H          2.16948       -1.81655        1.95727
H         -1.36176       -2.28659        0.91424
H         -1.30463       -0.56099        1.17983
H         -1.50174        1.02308       -0.72579
H         -2.34299        1.40441       -2.98612
H         -3.30644       -1.45420       -5.32574
H         -4.10223        1.40757       -4.59875
H         -4.60274        0.49963       -6.02416
H         -5.09732       -0.04264       -4.40953
H         -0.84310        1.49954       -6.18422
H         -2.61048       -2.86271       -3.60024
H         -1.74005       -3.23582       -1.33835
