43

C          0.71339       -0.10048        0.14506
N          0.10235       -1.36383        0.50536
C          0.55137       -2.46800        0.05315
O          1.56208       -2.58835       -0.82547
N         -0.00995       -3.63318        0.44207
C          0.67126       -4.70520        0.67216
O          2.00660       -4.77143        0.49002
C          0.04462       -5.96641        1.31138
C          0.43847       -5.88546        2.80687
C         -1.50390       -5.90634        1.17823
O         -2.17342       -6.64227        0.46108
O         -2.03332       -4.93601        1.97709
C         -3.46024       -4.84256        1.99565
O         -4.09396       -4.61128        0.74342
C         -3.67425       -3.40855        0.12254
C          0.51654       -7.34633        0.75729
C          0.05777       -8.50480        1.28762
C          0.41519       -9.87847        0.80370
C          1.64629       -9.88982       -0.09297
C          1.57558       -8.75946       -1.10985
C          1.46538       -7.39224       -0.42369
H          0.31342        0.68965        0.78897
H          0.48202        0.16749       -0.89026
H          1.79895       -0.11216        0.29027
H          1.78370       -1.71774       -1.18600
H          2.30658       -4.00791       -0.03643
H          0.25585       -4.88515        3.21880
H         -0.12810       -6.59171        3.42363
H          1.50687       -6.09317        2.94579
H         -3.86879       -5.76346        2.42697
H         -3.72649       -4.03021        2.68166
H         -3.85702       -2.54877        0.77269
H         -2.61954       -3.46220       -0.15320
H         -4.25488       -3.28289       -0.79575
H         -0.66760       -8.48757        2.09889
H         -0.44597      -10.28437        0.25829
H          0.58708      -10.53543        1.66347
H          1.72321      -10.85605       -0.60412
H          2.54988       -9.77911        0.51974
H          2.46602       -8.77769       -1.74891
H          0.70970       -8.91131       -1.76636
H          2.46616       -7.11645       -0.06977
H          1.16191       -6.66408       -1.18402
