41

C          2.10369        0.95294       -0.89111
C          1.20198        1.46705       -2.00434
C          1.14349        0.55336       -3.23585
C          0.01125       -0.47927       -3.26263
O         -1.17647        0.04526       -2.68111
C         -1.80847       -0.82798       -1.74149
C         -1.10385       -0.85274       -0.37868
O         -0.84559       -2.18161        0.05548
C          0.39375       -2.75340       -0.36313
C          0.15351       -4.18037       -0.85695
O         -0.12427       -5.11935        0.18674
C         -1.31108       -4.86065        0.92862
C         -1.05436       -4.31143        2.34466
C          0.40483       -4.14589        2.79185
C          0.72918       -2.71697        3.21606
H          1.95376       -0.10889       -0.68497
H          1.90698        1.50940        0.03240
H          3.15671        1.09889       -1.14884
H          0.20108        1.66442       -1.60724
H          1.58998        2.44385       -2.31596
H          0.99644        1.20252       -4.10695
H          2.10349        0.04561       -3.39183
H         -0.21250       -0.73836       -4.30447
H          0.32261       -1.41103       -2.79937
H         -2.81246       -0.41227       -1.59006
H         -1.94046       -1.82697       -2.17173
H         -0.19597       -0.25168       -0.33828
H         -1.78289       -0.42680        0.36592
H          0.87420       -2.16701       -1.14532
H          1.08475       -2.75077        0.47886
H         -0.65902       -4.21125       -1.59140
H          1.06253       -4.53849       -1.35139
H         -2.01288       -4.22267        0.37636
H         -1.83195       -5.82004        1.02370
H         -1.60667       -3.37004        2.46025
H         -1.54613       -4.99608        3.04875
H          0.59103       -4.80299        3.64947
H          1.11824       -4.45731        2.02492
H          0.22335       -2.46199        4.15134
H          1.80779       -2.60687        3.36993
H          0.42534       -1.98437        2.46300
