21

C          1.17079        0.19847        0.14673
C          0.54877       -0.74003       -0.57840
C         -0.89791       -1.02620       -0.50089
O         -1.35464       -2.11698       -0.80644
O         -1.59555        0.06644       -0.11051
C         -3.01884       -0.08776        0.01120
C         -3.74397        0.47235       -1.21367
C         -3.52265       -0.30802       -2.51214
C         -4.15639       -1.69157       -2.50184
H          0.63701        0.83026        0.84996
H          2.24349        0.33788        0.06158
H          1.10304       -1.39178       -1.24452
H         -3.30440       -1.12219        0.22896
H         -3.31246        0.50194        0.88721
H         -4.81879        0.52103       -1.00199
H         -3.40040        1.50077       -1.38111
H         -3.96301        0.26172       -3.33958
H         -2.45318       -0.38940       -2.73149
H         -5.24613       -1.61910       -2.43036
H         -3.91324       -2.22192       -3.42816
H         -3.80342       -2.30286       -1.66792
