38

C          0.06272       -0.55824        0.19405
O          0.95773        0.32076        0.86056
C          1.25350       -0.00173        2.16234
C          0.20850       -0.06895        3.09642
C          0.47001        0.10901        4.45295
C         -0.53526        0.50517        5.46606
C         -1.75269        1.08408        5.35447
C         -2.40586        1.51552        6.64410
C         -3.73742        2.22706        6.61293
O         -1.84885        1.33318        7.73162
C         -2.46966        1.29601        4.06813
C         -1.89419        2.22827        3.03020
O         -3.55847        0.75354        3.89176
C          1.80730        0.04866        4.87081
C          2.86723       -0.03864        3.95534
O          4.09374       -0.07508        4.57099
C          5.19782       -0.55727        3.81555
C          2.59749        0.01387        2.57851
O          3.67238        0.17144        1.74343
C          3.53043       -0.18717        0.37672
H         -0.94029       -0.12311        0.17917
H          0.04797       -1.56266        0.62671
H          0.41159       -0.63838       -0.84081
H         -0.80910       -0.13716        2.73469
H         -0.14756        0.38001        6.48150
H         -4.50698        1.56018        7.00949
H         -3.67019        3.12206        7.24036
H         -4.02613        2.56167        5.61649
H         -1.86750        1.70930        2.06605
H         -2.53166        3.10942        2.93858
H         -0.88261        2.55028        3.28518
H          2.05797        0.12430        5.92932
H          4.94513       -1.45125        3.23491
H          5.60466        0.23691        3.18244
H          5.98512       -0.84076        4.52091
H          2.98828       -1.13041        0.25204
H          3.06954        0.62747       -0.19017
H          4.53402       -0.33264       -0.03260
