23

Cl        -2.64455        0.92936        0.09755
C         -1.19736       -0.00015        0.07904
C         -1.25416       -1.37124        0.32008
C         -0.08122       -2.13280        0.31040
C          1.15241       -1.52383        0.04354
O          2.36216       -2.19004        0.03058
C          2.36396       -3.56256        0.01208
C          2.03857       -4.23827       -1.16839
C          2.08817       -5.63281       -1.20171
C          2.48368       -6.34059       -0.06553
Cl         2.54430       -8.05943       -0.11292
C          2.83588       -5.67032        1.10509
C          2.78285       -4.27677        1.14045
Cl         3.22869       -3.46829        2.59779
C          1.19198       -0.13876       -0.18786
Cl         2.68410        0.67662       -0.50232
C          0.02122        0.62287       -0.17184
H         -2.20736       -1.85420        0.52339
H         -0.15911       -3.19515        0.52288
H          1.75115       -3.68281       -2.05753
H          1.82682       -6.16085       -2.11576
H          3.15430       -6.22889        1.98106
H          0.06164        1.69376       -0.35085
