57

C          3.73933        0.51631       -0.76424
O          2.83938        0.64028       -1.86224
N          2.43269        1.97589       -1.95134
C          1.86666        2.23902       -3.09387
C          1.63461        1.20530       -4.17217
O          2.20574        1.35616       -5.24944
N          0.73158        0.18134       -4.04982
C          0.04332       -0.48128       -2.93094
C          0.86711       -1.43754       -2.03834
O          1.58894       -2.38722       -2.23465
N          0.17198       -1.02776       -0.92806
C         -0.52631       -1.92477       -0.14620
C          0.16234       -3.20143        0.18920
O          0.11926       -4.23666       -0.44373
O          0.75325       -3.10221        1.39054
C         -1.79653       -1.72108        0.26677
C         -2.67786       -2.76228        0.92795
N         -3.59926       -3.65264        0.02011
C         -4.66323       -4.29028        0.91728
C         -2.81682       -4.79639       -0.66952
C         -2.58779       -4.30325       -2.08060
C         -3.91510       -3.65795       -2.40791
C         -4.29635       -2.90924       -1.13974
C         -2.35916       -0.32464        0.19197
S         -2.21154        0.30698       -1.48987
C         -0.39665        0.16308       -1.59385
C          1.53329        3.63115       -3.39740
C          0.53094        4.03069       -4.26466
S          0.58523        5.72806       -4.49208
C          1.94195        5.81533       -3.44742
N          2.60460        6.96702       -3.25576
N          2.29573        4.68366       -2.89340
H          3.99781       -0.53942       -0.64936
H          3.26444        0.86527        0.15808
H          4.65144        1.08719       -0.96119
H          0.76729       -0.35217       -4.91665
H         -0.77027       -1.06586       -3.39534
H          1.26184       -3.93520        1.49949
H         -2.09432       -3.46286        1.53689
H         -3.35346       -2.25703        1.62973
H         -4.15539       -4.89308        1.67508
H         -5.24746       -3.48930        1.37873
H         -5.31291       -4.91717        0.29744
H         -3.46829       -5.67917       -0.69487
H         -1.94183       -5.05382       -0.07863
H         -1.78386       -3.56467       -2.13469
H         -2.34145       -5.11856       -2.76716
H         -3.85200       -2.99463       -3.27580
H         -4.66519       -4.42654       -2.62954
H         -3.94835       -1.88418       -1.17078
H         -5.37841       -2.89955       -0.97541
H         -1.84123        0.33270        0.90077
H         -3.41899       -0.30528        0.46613
H          0.12023        1.07120       -1.27786
H         -0.19305        3.43076       -4.79671
H          2.53547        7.66719       -3.98546
H          3.54740        6.85982       -2.89545
