31

C          0.90995        0.37130       -0.06276
C          0.52041       -0.57626       -1.18772
C          1.04258       -1.99783       -0.97518
C          0.44762       -2.72970        0.23197
C         -1.04759       -3.06472        0.14269
C         -1.50000       -3.85911       -1.08731
N         -1.11406       -5.26246       -1.08568
C          0.25132       -5.72034       -1.12365
C          0.12915       -7.16602       -1.55659
C         -1.20886       -7.59874       -0.97156
C         -2.00921       -6.31861       -0.97587
O         -3.22259       -6.24702       -0.86349
H          0.41351        0.10637        0.87513
H          0.61943        1.39597       -0.31395
H          1.99215        0.35762        0.10362
H         -0.56765       -0.57755       -1.31164
H          0.94196       -0.19115       -2.12415
H          0.87460       -2.57822       -1.88863
H          2.13202       -1.95663       -0.84992
H          1.02220       -3.64508        0.39220
H          0.61333       -2.13811        1.13969
H         -1.33390       -3.61273        1.04928
H         -1.61037       -2.12339        0.16478
H         -2.59538       -3.81636       -1.12663
H         -1.14373       -3.41172       -2.01945
H          0.66745       -5.66323       -0.11406
H          0.84682       -5.12600       -1.82114
H          0.96518       -7.78168       -1.21277
H          0.09141       -7.22534       -2.65118
H         -1.10398       -7.94609        0.06080
H         -1.68578       -8.36626       -1.58526
