55

C          0.28418       -0.47589       -0.44360
C         -0.19209        0.35246       -1.60663
O         -1.22123        0.05770       -2.21279
C          0.62798        1.56629       -2.00172
C          0.22728        2.83279       -1.24467
C          0.89225        3.02800        0.12749
C          2.43197        3.13829        0.11247
C          2.88952        4.42830       -0.57853
C          3.03361        3.08143        1.53574
C          2.84500        1.75421        2.28717
C          3.36614        0.50430        1.56315
C          4.88859        0.45619        1.31805
C          5.64992        0.33844        2.64467
C          5.28090       -0.73451        0.41083
C          4.75594       -0.68438       -1.03139
C          5.14271        0.56085       -1.83797
C          6.65363        0.78878       -2.02179
C          7.30359       -0.32088       -2.84883
C          6.89323        2.14373       -2.69373
H         -0.35931       -1.35280       -0.33047
H          0.23948        0.10144        0.47979
H          1.30206       -0.82172       -0.63077
H          1.69161        1.32859       -1.92742
H          0.43641        1.72626       -3.07099
H          0.44967        3.70214       -1.87354
H         -0.86063        2.83781       -1.09829
H          0.47851        3.94048        0.57743
H          0.57510        2.21163        0.77904
H          2.84975        2.31018       -0.46078
H          2.50209        5.31414       -0.06444
H          3.98313        4.49409       -0.58823
H          2.55736        4.46374       -1.62023
H          4.10756        3.29837        1.48244
H          2.59523        3.88441        2.14265
H          3.32164        1.83934        3.27014
H          1.77939        1.60766        2.49817
H          3.07224       -0.37656        2.14901
H          2.83464        0.41586        0.61447
H          5.21470        1.38283        0.83523
H          5.34062       -0.55325        3.20100
H          6.72879        0.26781        2.46908
H          5.48331        1.21237        3.28090
H          6.37398       -0.82058        0.37889
H          4.92316       -1.66591        0.86964
H          5.10415       -1.58136       -1.55698
H          3.66399       -0.76449       -1.02583
H          4.66726        0.48778       -2.82514
H          4.70380        1.44447       -1.36450
H          7.14096        0.82129       -1.04070
H          6.82361       -0.41769       -3.82879
H          8.36577       -0.11085       -3.01380
H          7.23833       -1.28744       -2.34056
H          6.47629        2.95592       -2.08840
H          7.96495        2.33499       -2.81290
H          6.42821        2.18557       -3.68450
