26

C          0.98418       -0.06000        0.19072
C          0.65865        0.94808       -0.90877
C          1.10269        0.54558       -2.34673
C          0.59605       -0.87568       -2.73196
C         -0.91684       -1.06593       -2.69181
C          0.57200        1.57936       -3.36968
C          1.20363        2.94065       -3.24739
O          2.18506        3.33556       -3.85352
O          0.57454        3.72966       -2.35829
C          2.63201        0.57067       -2.42629
O          3.39735        1.06622       -1.61564
O          3.11807        0.02989       -3.56009
H          0.45628       -1.00638        0.04770
H          0.67383        0.34142        1.16139
H          2.05674       -0.26625        0.24630
H         -0.42199        1.13601       -0.89339
H          1.13232        1.89545       -0.62306
H          0.92713       -1.12620       -3.74850
H          1.06675       -1.62697       -2.08566
H         -1.41974       -0.42637       -3.42303
H         -1.16606       -2.10303       -2.93997
H         -1.33226       -0.85596       -1.70294
H          0.76324        1.24093       -4.39695
H         -0.51535        1.70035       -3.29602
H          1.10684        4.55315       -2.34540
H          4.08417        0.19076       -3.50400
