23

C          0.99787        0.02426       -0.11313
C          0.77870        1.33338        0.62602
O          1.23256        2.46090       -0.13715
C          2.57541        2.63379       -0.19422
O          3.43298        1.91765        0.29320
C          2.87203        3.82089       -1.02005
C          2.18331        5.02194       -0.83056
C          2.50231        6.13351       -1.61627
C          3.52579        6.06767       -2.56757
N          3.74428        7.14032       -3.43925
C          4.16483        4.84306       -2.78688
C          3.86632        3.72975       -1.99629
H          0.58132        0.07245       -1.12407
H          0.52923       -0.80412        0.42625
H          2.06369       -0.20051       -0.21740
H         -0.29500        1.47828        0.78636
H          1.25526        1.32530        1.61270
H          1.40184        5.09937       -0.07933
H          1.94405        7.05591       -1.47758
H          4.66191        7.13681       -3.87399
H          3.51234        8.04596       -3.04303
H          4.90687        4.74637       -3.57530
H          4.39167        2.79163       -2.15907
