10

C          0.96768        0.04685       -0.09267
C          0.46207        1.40431       -0.56227
Cl         1.08907        1.77066       -2.18590
Cl        -1.31529        1.45289       -0.51572
N          0.94935        2.53092        0.35356
O          1.66325        2.22298        1.32269
O          0.61056        3.69682        0.08767
H          0.61597       -0.75578       -0.75169
H          0.62108       -0.18768        0.92105
H          2.06345        0.00295       -0.08089
