30

C          0.93502        0.07667       -0.02832
C          0.64000       -0.16001       -1.50329
C          1.82283        0.19666       -2.39622
N          0.20128       -1.51227       -1.74806
C         -1.02549       -1.55933       -2.36807
O         -1.60293       -2.60406       -2.62652
N         -1.45975       -0.28727       -2.57758
C         -2.74016        0.06069       -3.15642
C         -2.74100        0.06646       -4.67194
C         -2.91206        1.26277       -5.38529
C         -2.98332        1.25568       -6.78209
C         -2.87165        0.05710       -7.48385
C         -2.68747       -1.13555       -6.79052
C         -2.62768       -1.13133       -5.39536
C         -0.60778        0.60392       -1.98389
O         -0.78181        1.80968       -1.86473
H          0.19246       -0.41075        0.61435
H          0.93370        1.14390        0.21726
H          1.91500       -0.33137        0.24609
H          2.13641        1.23425       -2.23846
H          2.67919       -0.45647       -2.19519
H          1.56961        0.08828       -3.45759
H          0.69797       -2.36048       -1.50838
H         -3.49305       -0.65660       -2.80927
H         -3.04059        1.04735       -2.78390
H         -3.00866        2.21087       -4.85980
H         -3.13466        2.18606       -7.32390
H         -2.93340        0.05075       -8.56898
H         -2.60191       -2.07419       -7.33224
H         -2.50870       -2.08113       -4.87814
