7

C         -0.07482        0.89211       -0.07465
C         -0.78395       -0.43293       -0.07466
O          0.64372       -0.34471        0.01746
H         -0.12778        1.50595        0.81537
H         -0.00666        1.44079       -1.00528
H         -1.32406       -0.72938        0.81536
H         -1.20266       -0.79400       -1.00529
