35

C          0.87903        0.16829       -0.18314
C          0.39686       -0.40276        1.12249
C         -0.45256        0.54594        1.92943
C          0.67366       -1.63656        1.58919
C          1.47777       -2.73225        0.93597
C          2.89136       -3.07565        1.49892
C          2.97950       -3.33703        3.05122
C          2.95523       -2.07613        3.92904
C          1.92587       -4.33166        3.56074
C          3.91125       -1.99976        1.10765
O          3.64154       -0.84026        0.81507
N          5.22304       -2.39397        1.13409
C          5.61923       -3.63622        0.75227
O          6.73256       -3.83580        0.27814
N          4.68499       -4.62160        0.80427
C          3.33886       -4.37583        0.80705
O          2.57272       -5.19861        0.31236
H          0.04736        0.63653       -0.72106
H          1.30671       -0.58031       -0.85326
H          1.63937        0.93418        0.00179
H         -0.81927        0.09222        2.85633
H          0.12605        1.43539        2.19889
H         -1.32646        0.86020        1.34913
H          0.22815       -1.91926        2.54229
H          0.83921       -3.62537        0.98824
H          1.57293       -2.53967       -0.13949
H          3.95190       -3.80643        3.25942
H          2.00075       -1.54932        3.88908
H          3.12494       -2.34581        4.97815
H          3.74708       -1.37365        3.65338
H          1.97914       -5.28188        3.02110
H          2.09244       -4.55395        4.62091
H          0.90913       -3.94174        3.46656
H          5.88310       -1.66657        0.89051
H          4.96241       -5.48256        0.35117
