22

C          0.93706        0.13749        0.00111
C          0.25072       -0.33619        1.04941
C         -1.22067       -0.28209        1.18831
O         -1.77692       -0.48554        2.25626
O         -1.81476       -0.05503       -0.00669
C         -3.24863       -0.08839        0.00104
C         -3.82308       -1.47046       -0.22781
C         -5.21743       -1.62011       -0.29843
C         -5.79271       -2.88125       -0.46887
C         -4.98294       -4.00992       -0.56869
C         -3.59841       -3.87671       -0.51276
C         -3.02217       -2.61527       -0.35140
H          0.44787        0.61378       -0.84313
H          2.01940        0.06434       -0.02632
H          0.76312       -0.78830        1.89175
H         -3.64554        0.34139        0.92934
H         -3.57374        0.56159       -0.81981
H         -5.86709       -0.75163       -0.21102
H         -6.87364       -2.98367       -0.51471
H         -5.42952       -4.99326       -0.68718
H         -2.96297       -4.75526       -0.58718
H         -1.93849       -2.54578       -0.31224
