14

C          1.05970       -0.07528       -0.02775
C         -0.24416       -0.07528       -0.02775
C         -1.76416       -0.07528       -0.02775
C         -2.28204       -1.34322       -0.70277
C         -2.28204        0.04235        1.40386
O         -2.20461        1.05685       -0.77237
H          2.12492       -0.06652       -0.03351
H         -1.94737       -2.24667       -0.18137
H         -3.37742       -1.34871       -0.73795
H         -1.93671       -1.40251       -1.74184
H         -1.93671        0.97297        1.86985
H         -3.37742        0.07248        1.42284
H         -1.94737       -0.79424        2.02692
H         -3.17548        1.05060       -0.76826
