49

O          0.84640       -0.82530       -0.82517
C          1.96069       -0.34691       -0.63805
C          2.71341       -0.49218        0.66903
C          3.74547       -1.61797        0.67192
C          5.14063       -1.33070        0.08536
N          5.94521       -0.22300        0.60481
C          5.98644       -0.12652        2.05826
C          7.04600        0.87516        2.52303
C          6.90374        2.25849        1.85353
O          5.70650        2.90108        2.32078
C          8.04596        3.18333        2.29407
C          8.20210        3.48924        3.66194
C          9.24338        4.30495        4.11392
C         10.14186        4.84364        3.20089
Cl        11.43045        5.84152        3.75040
C          9.99993        4.58107        1.84281
C          8.95912        3.76014        1.39373
C          6.79676        2.07198        0.32885
C          5.73275        1.05232       -0.06788
C          2.60179        0.40200       -1.73093
C          2.53142        1.79823       -1.76058
C          3.18602        2.48995       -2.78146
C          3.89513        1.78147       -3.74932
F          4.54490        2.44993       -4.71033
C          3.94205        0.39053       -3.73470
C          3.27412       -0.30774       -2.73021
H          3.11825        0.46862        0.98902
H          1.95110       -0.73655        1.42191
H          3.87738       -1.95557        1.70774
H          3.33267       -2.48059        0.13137
H          5.73304       -2.24113        0.25502
H          5.08548       -1.26713       -1.00503
H          6.23740       -1.10375        2.48900
H          5.00934        0.15804        2.46485
H          8.04219        0.46365        2.31051
H          6.95948        0.95777        3.61337
H          4.95134        2.32029        2.14525
H          7.49520        3.09644        4.39065
H          9.34027        4.51587        5.17503
H         10.69279        5.01044        1.12407
H          8.88535        3.59118        0.32303
H          6.54960        3.02586       -0.15524
H          7.75540        1.72969       -0.08256
H          5.79930        0.91745       -1.15352
H          4.74556        1.46559        0.14524
H          1.97125        2.34470       -1.00617
H          3.15046        3.57422       -2.83229
H          4.49940       -0.13828       -4.50172
H          3.29697       -1.39472       -2.71466
