51

C          1.17736       -0.13982        0.73644
O          0.02810       -0.41545       -0.80087
N         -0.22640        0.35613       -2.20820
C         -0.22817       -0.20900       -3.40634
C         -0.35500       -1.67994       -3.89788
O         -0.96459       -1.94082       -4.92895
N          0.22118       -2.68848       -3.14692
C          0.11531       -2.39009       -1.74941
C          0.01621       -3.29110       -0.50390
O         -0.26482       -4.44611       -0.28477
N          0.28563       -2.19958        0.33816
C         -0.97621       -1.24788        0.83772
C         -1.86198       -2.01488        1.77096
O         -2.22239       -3.16918        1.64664
O         -2.11953       -1.32959        2.90182
C         -1.14517        0.23747        0.67976
C         -2.38607        1.00419        1.10524
S         -3.98267        0.21377        0.73886
C         -3.88212       -0.02090       -1.00296
O         -3.03734        0.54844       -1.67919
C         -4.87520       -0.93110       -1.52737
C         -6.19813       -1.18963       -1.20598
C         -6.66849       -2.15290       -2.13274
C         -5.60200       -2.45365       -2.94428
O         -4.51975       -1.71128       -2.59978
C          0.02016        1.47999       -0.22395
S          1.95316        0.56570       -1.30433
C          1.41082       -1.73556       -1.02250
C          0.12257        0.69035       -4.52615
C         -0.69942        1.02192       -5.58690
S          0.21642        1.77252       -6.83218
C          1.64276        1.57383       -5.90098
N          2.85241        1.90500       -6.37689
N          1.46174        1.05230       -4.71575
H          0.69771       -0.38390        1.69954
H          1.57388        0.87507        0.92497
H          2.05096       -0.81913        0.70741
H         -0.04327       -3.60393       -3.49707
H         -0.91210       -1.95915       -1.69881
H         -2.62907       -1.97348        3.43870
H         -2.33233        1.19868        2.18218
H         -2.40265        1.98420        0.61988
H         -6.76924       -0.71042       -0.42245
H         -7.66237       -2.57310       -2.20399
H         -5.46160       -3.12694       -3.77948
H          0.38612        2.21646        0.50854
H         -0.55214        2.04942       -0.97035
H          2.36386       -2.27110       -0.94367
H         -1.74693        0.79855       -5.72595
H          2.93236        2.49098       -7.19679
H          3.60707        1.97945       -5.70453
