24

O          1.79845       -0.50825       -0.06246
C          0.83363       -1.16356       -0.89152
C          0.93277       -0.62440       -2.32843
O          0.17495       -1.41090       -3.25498
C         -1.21965       -1.11566       -3.32126
O         -1.88194       -1.50716       -2.12370
C         -1.45428        0.36586       -3.67969
O         -2.84953        0.67552       -3.75946
C         -0.78800        1.25420       -2.63145
O         -1.46066        1.07776       -1.36564
C          0.69433        0.89902       -2.48937
O          1.23743        1.69488       -1.43028
H          1.91710       -1.07638        0.72193
H          1.03712       -2.24004       -0.88350
H         -0.14936       -1.00969       -0.44375
H          1.98373       -0.78079       -2.60849
H         -1.64411       -1.73902       -4.11500
H         -2.00648       -0.69597       -1.59131
H         -1.00754        0.57349       -4.65900
H         -3.18104        0.69756       -2.84113
H         -0.91379        2.31245       -2.88776
H         -0.94309        1.63351       -0.74287
H          1.19285        1.21161       -3.41593
H          1.72821        1.09529       -0.82422
