25

C          1.41467       -0.38547        0.07423
C          1.04412        0.93394       -0.17043
C         -0.30655        1.27273       -0.27238
C         -1.30752        0.30296       -0.11039
C         -2.77037        0.65798       -0.27328
C         -3.43002        1.37511        0.88663
C         -4.48865        0.77078        1.58322
C         -5.16489        1.45986        2.59449
C         -4.78802        2.75759        2.93047
C         -3.73427        3.36758        2.25599
C         -3.06576        2.68356        1.23805
C         -0.91879       -1.02069        0.14634
C          0.43417       -1.36278        0.22905
H          2.46629       -0.65155        0.13856
H          1.80557        1.69948       -0.29278
H         -0.56827        2.30335       -0.49546
H         -2.88890        1.27223       -1.17583
H         -3.33026       -0.26153       -0.49330
H         -4.81070       -0.23670        1.33048
H         -5.99377        0.98588        3.11421
H         -5.31719        3.29578        3.71218
H         -3.43776        4.38106        2.51253
H         -2.26613        3.19652        0.71242
H         -1.66666       -1.80146        0.26350
H          0.72350       -2.39521        0.40832
