25

C          1.15041        0.03378        0.29759
C          0.54832        1.20933       -0.40686
C         -0.37198        1.21317       -1.39213
C         -0.97422        2.49349       -1.92099
C         -0.35381        2.97977       -3.23802
C         -0.72589        2.18082       -4.49048
C         -2.20873        2.23616       -4.82669
C         -0.87888       -0.05466       -1.93737
N         -0.23755       -1.05516       -2.40699
O         -2.20908       -0.13552       -1.93178
H          0.63992       -0.90893        0.08874
H          1.09764        0.19396        1.37972
H          2.20398       -0.06802        0.02103
H          0.89149        2.17085       -0.02592
H         -2.06195        2.40351       -2.01160
H         -0.82329        3.28732       -1.17627
H         -0.65459        4.02393       -3.39315
H          0.73960        2.98957       -3.14218
H         -0.16750        2.59703       -5.33811
H         -0.40678        1.13842       -4.39715
H         -2.55496        3.27160       -4.90660
H         -2.39529        1.74348       -5.78644
H         -2.81407        1.72720       -4.07177
H          0.76766       -0.85192       -2.36612
H         -2.42949       -1.00588       -2.30407
