41

C          2.03500        0.85163       -0.57680
C          1.16645        0.67942       -1.81777
C          1.50649       -0.59410       -2.59822
N          0.63964       -1.73065       -2.23360
C         -0.49946       -2.05635       -3.11386
C         -0.14009       -3.12445       -4.15278
C         -0.56201       -4.52516       -3.72207
C          0.86992       -2.48655       -1.09586
C          1.79223       -3.56151       -1.05620
N          2.60072       -3.91647       -2.21598
O          2.47135       -5.07013       -2.65128
O          3.41889       -3.08627       -2.62933
C          1.95481       -4.39901        0.06574
C          1.20490       -4.15459        1.21116
S          1.36326       -5.20333        2.62519
N         -0.01806       -6.14344        2.48676
O          2.48077       -6.09329        2.42450
O          1.19888       -4.39966        3.81071
C          0.32771       -3.07708        1.25878
C          0.15997       -2.27938        0.11270
N         -0.78858       -1.18571        0.25853
O         -0.51462       -0.32417        1.10623
O         -1.83810       -1.23977       -0.39446
H          2.07839       -0.05538        0.03072
H          1.64755        1.66211        0.04870
H          3.06066        1.10946       -0.86054
H          0.10576        0.70803       -1.54913
H          1.34322        1.54956       -2.46182
H          1.37092       -0.38383       -3.66676
H          2.56531       -0.83558       -2.47449
H         -1.37485       -2.37558       -2.53937
H         -0.80281       -1.14424       -3.64267
H         -0.66498       -2.90055       -5.08935
H          0.93008       -3.10651       -4.38471
H         -1.65113       -4.62846       -3.76319
H         -0.12896       -5.27464       -4.39233
H         -0.24883       -4.76009       -2.70243
H          2.64791       -5.23974        0.02920
H          0.23592       -7.12359        2.34978
H         -0.62851       -5.99480        3.29232
H         -0.23316       -2.86303        2.16838
