63

C          1.17503       -0.28645        0.35201
C          0.91503        1.20059        0.53930
C          1.33798        2.04670       -0.66469
C          0.64387        1.69490       -1.98537
C         -0.88439        1.80961       -1.96489
C         -1.41908        3.22076       -1.70264
C         -1.00087        4.26762       -2.73976
C         -1.46043        3.97909       -4.17466
C         -2.98160        3.95175       -4.37615
C         -3.70083        5.25917       -4.01470
C         -3.29902        6.47366       -4.88405
C         -3.81232        6.34873       -6.33081
O         -5.23030        6.31809       -6.39610
C         -3.79094        7.79860       -4.25515
C         -3.10034        8.19561       -2.93905
C         -1.57163        8.31342       -2.99856
C         -1.03364        9.35318       -3.98546
C         -1.40274       10.80300       -3.65830
C         -0.89473       11.31674       -2.30582
C          0.62342       11.26631       -2.11113
C          1.38846       12.11884       -3.11182
H          0.56315       -0.70379       -0.45317
H          0.92832       -0.83072        1.26892
H          2.22801       -0.47326        0.11871
H         -0.14435        1.36149        0.76680
H          1.47375        1.54466        1.41793
H          1.16820        3.10386       -0.42884
H          2.42097        1.94132       -0.80647
H          1.05285        2.33518       -2.77556
H          0.91257        0.67266       -2.27565
H         -1.27490        1.44261       -2.92089
H         -1.29513        1.13336       -1.20673
H         -2.51306        3.17722       -1.64782
H         -1.09045        3.55935       -0.71299
H         -1.38383        5.23987       -2.41499
H          0.08996        4.37366       -2.73670
H         -1.01535        4.72772       -4.83930
H         -1.04682        3.02077       -4.50841
H         -3.19424        3.68770       -5.41798
H         -3.41110        3.14165       -3.77486
H         -4.78229        5.09254       -4.08853
H         -3.51994        5.46668       -2.95643
H         -2.20956        6.52375       -4.95658
H         -3.47497        7.20780       -6.92098
H         -3.41948        5.45344       -6.82289
H         -5.52131        5.44408       -6.08411
H         -3.65590        8.61427       -4.97597
H         -4.87112        7.73575       -4.07098
H         -3.52465        9.14837       -2.60103
H         -3.35898        7.47244       -2.15755
H         -1.19903        8.53170       -1.99123
H         -1.13705        7.34320       -3.25754
H          0.05755        9.25731       -4.03149
H         -1.38817        9.11943       -4.99600
H         -1.01905       11.44780       -4.45763
H         -2.49258       10.91747       -3.68718
H         -1.23136       12.35385       -2.18367
H         -1.37083       10.75133       -1.49628
H          0.85380       11.62625       -1.10107
H          0.98385       10.23299       -2.15819
H          1.03895       13.15595       -3.09071
H          2.45609       12.11663       -2.86990
H          1.27953       11.73722       -4.13118
