18

C          0.93377        0.07411        0.01100
C         -0.37009        0.07411        0.01100
C         -1.89009        0.07411        0.01100
O         -2.32896        0.10165        1.36895
C         -2.36376        1.36952       -0.58858
C         -3.30261        1.53570       -1.52657
Cl        -3.74936        3.07969       -2.12288
C         -2.40590       -1.23920       -0.62144
C         -1.90242       -1.53551       -2.03270
H          1.99952        0.08138        0.00962
H         -1.81486       -0.57311        1.84281
H         -1.88994        2.26050       -0.17859
H         -3.87225        0.74511       -1.99530
H         -2.12159       -2.08383        0.02189
H         -3.50366       -1.24391       -0.61947
H         -0.81911       -1.69143       -2.04612
H         -2.36677       -2.45366       -2.40721
H         -2.13828       -0.73346       -2.73626
