37

O          1.11039       -0.01186       -0.15174
S          2.55017       -0.08031        0.03671
O          3.08624       -0.41619        1.34227
C          3.14753       -1.30871       -1.15094
C          4.67400       -1.37911       -1.21839
C          5.16444       -2.51105       -2.12038
C          4.56098       -3.85439       -1.72975
C          3.03923       -3.78849       -1.71521
C          2.54133       -2.67749       -0.79765
C          3.24452        1.51946       -0.48280
C          2.23717        2.64623       -0.19213
C          2.79072        4.02775       -0.53265
C          4.12505        4.28800        0.15526
C          5.13039        3.18728       -0.16142
C          4.58136        1.81300        0.21368
H          2.75709       -0.99110       -2.12619
H          5.07557       -0.43905       -1.60904
H          5.09143       -1.51325       -0.21306
H          6.25771       -2.57098       -2.07247
H          4.90360       -2.28437       -3.16160
H          4.92622       -4.14687       -0.73754
H          4.89076       -4.62729       -2.43298
H          2.63178       -4.75008       -1.38295
H          2.66774       -3.61770       -2.73290
H          2.78638       -2.93639        0.24054
H          1.44724       -2.63026       -0.85296
H          3.38679        1.45261       -1.56801
H          1.31675        2.48754       -0.76642
H          1.95199        2.62264        0.86767
H          2.06787        4.79613       -0.23541
H          2.91733        4.11195       -1.61888
H          3.97296        4.34416        1.24040
H          4.52339        5.25805       -0.16216
H          6.06197        3.37294        0.38500
H          5.37560        3.20725       -1.23030
H          4.45354        1.77387        1.30281
H          5.32820        1.05372       -0.03202
