34

C          0.03414        0.02016        0.23985
C          0.35787       -1.31090        0.89295
O          1.12165       -1.03922        2.07536
C          2.04431       -1.98126        2.42690
O          2.18068       -3.06093        1.86909
C          2.87886       -1.51555        3.65208
C          2.58027       -0.06926        4.08277
C          2.44557       -2.45023        4.79987
N          4.34317       -1.68358        3.47778
C          5.14745       -1.11540        2.51960
O          6.29874       -0.79121        2.78762
C          4.67096       -1.00462        1.13300
C          4.85558       -2.09666        0.27915
C          4.45497       -2.00656       -1.05339
C          3.87999       -0.82730       -1.52813
C          3.72230        0.26958       -0.67770
C          4.12836        0.18865        0.65575
H         -0.65681        0.59741        0.86287
H         -0.41931       -0.12600       -0.74410
H          0.93595        0.62934        0.12881
H         -0.56700       -1.82013        1.18330
H          0.91124       -1.93804        0.18667
H          1.52319        0.06456        4.34116
H          3.17189        0.21008        4.96260
H          2.81659        0.64852        3.29217
H          2.69727       -3.49385        4.57451
H          2.94898       -2.19124        5.73852
H          1.36365       -2.40203        4.96890
H          4.86179       -1.72442        4.34761
H          5.31287       -3.01084        0.64974
H          4.59629       -2.85331       -1.72042
H          3.56604       -0.75975       -2.56708
H          3.28600        1.18976       -1.05825
H          4.02706        1.05079        1.30736
