8

F          1.04693        0.15809        0.03512
C          2.40117        0.06154       -0.04869
C          2.88869       -1.07255        0.83027
Cl         2.40834       -2.65382        0.16461
H          2.67332       -0.07958       -1.09899
H          2.81599        1.01386        0.29410
H          3.97963       -1.06599        0.90161
H          2.46073       -0.99767        1.83354
