23

Cl        -2.63893        0.94690        0.08926
C         -1.19730        0.00892        0.07251
C         -1.26397       -1.36414        0.29869
C         -0.09574       -2.13325        0.29137
C          1.14340       -1.52909        0.03950
O          2.35010       -2.20083        0.02640
C          2.35169       -3.57338        0.00951
C          1.99221       -4.25381       -1.15782
C          2.04317       -5.64999       -1.18998
Cl         1.55461       -6.43663       -2.64775
C          2.47868       -6.36058       -0.06309
Cl         2.56488       -8.08593       -0.03512
C          2.86652       -5.67439        1.09204
C          2.80927       -4.28107        1.12545
Cl         3.29970       -3.46679        2.56413
C          1.19291       -0.14168       -0.17650
Cl         2.69296        0.66764       -0.46850
C          0.02705        0.62734       -0.16140
H         -2.22227       -1.84304        0.48838
H         -0.18392       -3.19634        0.49338
H          1.67558       -3.69459       -2.03487
H          3.21624       -6.22477        1.96242
H          0.07537        1.69977       -0.32809
