18

O         -2.13609        1.19358       -0.01619
C         -1.16215        0.45002       -0.02993
N         -1.29070       -0.91240       -0.01356
C         -0.23210       -1.78627        0.02823
C          1.02503       -1.33747        0.01175
N          2.17635       -2.14003        0.20001
S          2.36093       -3.74919       -0.10498
O          2.83980       -3.90144       -1.45791
O          3.09683       -4.30760        1.00284
O          0.92053       -4.44859       -0.05075
C          1.24199        0.14282       -0.04364
O          2.37816        0.61091       -0.05979
N          0.11865        0.92181       -0.05411
H         -2.24286       -1.26190        0.01972
H         -0.52763       -2.82038        0.10993
H          3.04970       -1.61491        0.08580
H          1.07044       -5.41710       -0.03618
H          0.24035        1.92247       -0.06055
