16

N          1.05062       -0.18032        0.19362
C          0.34742       -1.25524       -0.27573
O         -0.81491       -1.13123       -0.64019
C          1.06306       -2.55558       -0.36779
C          0.58347       -3.51438       -1.26915
C          1.22591       -4.74765       -1.39134
C          2.34337       -5.03148       -0.60723
C          2.81621       -4.08736        0.30435
C          2.17722       -2.85092        0.42840
H          0.58117        0.71476        0.14092
H          2.05752       -0.17800        0.26163
H         -0.29139       -3.29989       -1.88007
H          0.85131       -5.48654       -2.09538
H          2.84062       -5.99405       -0.70031
H          3.67800       -4.31912        0.92560
H          2.54338       -2.14449        1.16698
