12

Br        -1.57960        0.00332       -0.02074
C          0.31104        0.00007       -0.00951
C          1.00474        1.20959       -0.00539
C          2.40036        1.20549        0.00377
C          3.09502       -0.00473        0.00876
C          2.39619       -1.21254        0.00419
C          1.00057       -1.21185       -0.00502
H          0.47058        2.15578       -0.00910
H          2.94628        2.14553        0.00717
H          4.18231       -0.00660        0.01624
H          2.93887       -2.15446        0.00793
H          0.46315       -2.15618       -0.00847
