27

O          0.84646       -0.56751        0.37567
C          0.05983       -1.33492       -0.52678
C          0.80544       -1.58354       -1.81070
C          1.16710       -2.88214       -2.19292
C          1.85542       -3.10163       -3.38721
C          2.20002       -2.02401       -4.20258
C          1.86502       -0.72385       -3.82386
O          2.21521        0.27388       -4.70696
C          2.52830        1.51085       -4.19479
C          1.88078        2.61402       -4.75095
C          2.18026        3.89758       -4.29405
C          3.13694        4.07571       -3.29404
C          3.80387        2.97297       -2.75787
C          3.50862        1.68794       -3.21555
C          1.14942       -0.50573       -2.64263
H          1.77062       -0.61563        0.07679
H         -0.19560       -2.27628       -0.02955
H         -0.87411       -0.79972       -0.72658
H          0.90776       -3.73405       -1.56741
H          2.12045       -4.11306       -3.68480
H          2.73102       -2.19737       -5.13498
H          1.14127        2.47249       -5.53393
H          1.67054        4.75796       -4.71963
H          3.36931        5.07644       -2.93798
H          4.55751        3.11582       -1.98790
H          4.04337        0.83428       -2.80952
H          0.84898        0.50077       -2.35893
