22

C          0.96085        0.01921       -0.00086
C          0.76600        1.46981       -0.40161
O          1.31848        1.67090       -1.72434
C          2.60030        2.05253       -2.01679
S          3.56421        2.79634       -0.86865
S          3.04695        1.69550       -3.69503
S          5.10718        1.73286       -3.78996
C          5.54699        3.04307       -4.90176
S          4.58301        4.33219       -5.35756
O          6.82784        2.91259       -5.36378
C          7.38501        3.56242       -6.53200
C          7.19130        2.66027       -7.73676
H          0.54612       -0.64856       -0.76422
H          0.47159       -0.19305        0.95374
H          2.02454       -0.22279        0.08742
H         -0.30495        1.68674       -0.47513
H          1.17949        2.15484        0.34360
H          6.97361        4.56044       -6.70298
H          8.45572        3.68680       -6.33834
H          6.12783        2.52468       -7.95695
H          7.68308        3.07591       -8.62074
H          7.60400        1.66451       -7.54087
