19

C          0.95806       -0.09587       -0.07363
C          0.60188        1.13052        0.72441
C         -0.15579        0.97473        1.89200
C         -0.49798        2.08365        2.65195
O         -1.23717        1.85760        3.78158
C         -0.09706        3.36768        2.26826
Cl        -0.56379        4.69910        3.27968
C          0.66276        3.56499        1.09846
C          1.08220        4.96170        0.71426
C          1.00849        2.42709        0.33393
Cl         1.95208        2.59481       -1.11650
H          0.54301       -0.02864       -1.08437
H          0.55284       -1.00475        0.38443
H          2.04497       -0.21524       -0.12647
H         -0.48255       -0.01044        2.21747
H         -1.39394        2.72398        4.20228
H          0.20017        5.59984        0.59296
H          1.73253        5.38345        1.48816
H          1.63358        5.01744       -0.22624
