42

C          0.91586       -0.04507       -0.14907
C          0.44397        1.25322        0.46039
O         -0.10372        2.12668       -0.19443
C          0.72404        1.44287        1.90954
C          2.05226        1.51430        2.29798
C          2.32893        1.87867        3.61917
C          1.41819        1.82647        4.68047
C          0.07401        1.83740        4.23343
C         -0.27039        1.75954        2.84633
C         -1.59938        2.30736        2.37550
C          1.99369        2.52407        6.01407
C          0.87470        2.51097        7.06391
C          3.24037        2.27962        6.98425
C          2.63699        3.65875        5.15990
C          1.54650        4.68660        4.75716
C          3.47403        2.74028        4.05331
C          4.48645        1.65729        4.54362
C          4.19279        3.55425        2.98345
H          0.34936       -0.24207       -1.06461
H          0.73595       -0.87635        0.53840
H          1.97895        0.01754       -0.39340
H          2.83944        1.49391        1.54976
H         -0.72852        2.14887        4.89720
H         -2.34502        2.32326        3.17435
H         -1.45159        3.34547        2.04208
H         -2.01299        1.73472        1.54109
H          1.01946        1.59413        7.66832
H          0.91654        3.35484        7.75427
H         -0.14795        2.40696        6.71582
H          4.15300        2.83933        6.72039
H          3.04376        2.73393        7.97056
H          3.51487        1.24057        7.14242
H          3.38688        4.28076        5.66382
H          1.57597        5.51970        5.47329
H          1.66147        5.09374        3.75298
H          0.52125        4.31155        4.86382
H          4.02159        0.86588        5.14762
H          4.90572        1.09735        3.69688
H          5.32029        2.08653        5.10175
H          4.65238        2.89291        2.23458
H          3.53284        4.23775        2.44756
H          5.01077        4.12418        3.43689
