60

C          0.94265        0.51258       -1.77474
C          0.30253       -0.78591       -1.32036
C          0.80737       -1.32427        0.01898
C          0.49864       -0.56891        1.31547
C         -0.94078       -0.16191        1.57931
C         -0.83015        0.88078        2.69684
C         -1.20917        0.39461        4.11626
O         -2.36639        0.55035        4.51093
N         -0.36766       -0.23101        4.98916
C          1.07239       -0.67326        4.97728
C          1.96275        0.46468        5.54909
C          2.14935        0.45407        7.06189
Cl         3.56672        0.55199        4.74423
C          1.14437       -2.06842        5.71066
O         -0.02580       -2.77934        5.26355
C          0.03059       -4.18257        5.10765
S         -1.55833       -4.73109        4.35815
C         -1.79239       -3.34394        3.20209
C          1.22519       -4.69038        4.25102
O          0.93936       -4.86635        2.84738
C          2.44996       -3.77421        4.34297
O          2.52965       -2.90473        3.20333
C          2.42341       -2.93180        5.61218
O          3.62819       -2.19895        5.74474
N          0.55415        1.35996        2.67296
C          0.70229        2.79629        2.82023
C          1.28206        0.71869        1.58139
H          0.52251        1.36810       -1.24077
H          0.74856        0.67401       -2.84017
H          2.02765        0.49561       -1.63030
H         -0.78742       -0.68373       -1.31428
H          0.52952       -1.54648       -2.07957
H          0.37844       -2.33089        0.12707
H          1.89298       -1.47492       -0.04422
H          0.75775       -1.28546        2.09993
H         -1.57876       -1.00904        1.83704
H         -1.36763        0.30916        0.68490
H         -1.54975        1.67666        2.45386
H         -0.87614       -0.48234        5.82726
H          1.32516       -0.82840        3.93492
H          1.49753        1.42263        5.30677
H          2.74749       -0.39490        7.40493
H          2.65908        1.36586        7.39311
H          1.18046        0.41956        7.57041
H          0.97342       -1.87942        6.77724
H          0.09340       -4.62552        6.10845
H         -2.40370       -2.56552        3.66657
H         -0.83316       -2.91244        2.90448
H         -2.29055       -3.69288        2.29503
H          1.49021       -5.68471        4.63246
H          0.06443       -5.30507        2.81017
H          3.36260       -4.38023        4.30446
H          2.12913       -3.42673        2.47267
H          2.41014       -3.63125        6.45840
H          3.83838       -1.83160        4.85921
H          1.05223        3.01438        3.83332
H          1.43268        3.22305        2.12660
H         -0.23502        3.35082        2.68846
H          1.34523        1.36016        0.70344
H          2.29954        0.48208        1.90733
