21

C          0.91385        0.05916        0.21608
C          0.56739        0.10075       -1.25866
O          1.24219       -0.97460       -1.92693
C          2.33851       -0.64259       -2.65221
O          2.80165        0.47541       -2.80932
C          2.87440       -1.86631       -3.29807
C          1.90019       -2.77634       -3.98317
C          4.19516       -2.11737       -3.33193
C          5.26182       -1.32884       -2.70647
O          6.38359       -1.20928       -3.16513
O          4.93286       -0.86144       -1.49571
H          0.63735       -0.90894        0.64723
H          0.39057        0.84902        0.76207
H          1.99172        0.17867        0.36454
H         -0.50771       -0.05910       -1.39213
H          0.80551        1.07898       -1.69034
H          2.04461       -2.73529       -5.06804
H          2.04017       -3.81054       -3.65074
H          0.85766       -2.50884       -3.78618
H          4.57200       -2.96655       -3.89295
H          5.72122       -0.35002       -1.21935
