42

O          1.03693        0.08448       -0.04499
C          2.25623        0.02182       -0.16214
C          3.05780       -0.63669        0.89764
C          4.28153       -0.23297        1.27121
N          5.06584       -0.78483        2.28727
C          4.81926       -1.92992        3.02319
N          5.77932       -2.15688        3.88605
C          6.61095       -1.09003        3.70242
C          7.75061       -0.85296        4.57068
C          8.69753       -1.85827        4.79897
C          9.77621       -1.64141        5.67355
C         10.80329       -2.72862        5.88726
F         10.25149       -3.88775        6.33848
F         11.46605       -3.04756        4.74173
F         11.76422       -2.39454        6.79309
C          9.87388       -0.40685        6.33886
C          8.92142        0.60622        6.13431
C          9.02034        1.90866        6.89197
F          9.05069        1.71934        8.24022
F         10.14911        2.60354        6.58505
F          7.98083        2.75660        6.65862
C          7.87395        0.37666        5.23088
N          6.23795       -0.25602        2.72539
N          2.96739        0.43963       -1.26701
N          2.20521        0.71015       -2.42690
C          2.92017        1.27246       -3.49928
C          4.05346        0.66135       -4.04219
N          4.73947        1.14977       -5.10603
C          4.22661        2.27753       -5.63979
C          3.09436        2.88567       -5.12645
N          2.42465        2.39987       -4.05269
H          2.51622       -1.42608        1.40852
H          4.75645        0.62431        0.80277
H          3.94183       -2.54370        2.88055
H          8.59638       -2.81812        4.29132
H         10.69664       -0.23133        7.03484
H          7.12541        1.15108        5.05915
H          3.94451        0.20122       -1.39031
H          1.42427        1.34349       -2.22120
H          4.43253       -0.27274       -3.64394
H          4.74777        2.67898       -6.50133
H          2.68666        3.78650       -5.57146
