50

C         -0.84518       -1.70292        0.00680
C         -0.55003       -1.73551       -1.48700
O          0.84123       -1.53479       -1.76923
P          1.26457       -0.78639       -3.17043
S          0.17093       -1.40658       -4.67957
O          0.94246        0.77149       -2.87147
C          0.67953        1.28976       -1.58085
C         -0.62996        2.04746       -1.59823
S          3.35524       -0.97116       -3.52813
C          4.26500        0.09079       -2.35369
O          3.55678       -0.04665       -1.12571
C          3.86756        0.90186       -0.13425
C          3.86515        2.33619       -0.63876
O          3.83647        2.52748       -2.05603
C          4.53289        1.56556       -2.85800
S          6.35376        2.17238       -3.39028
P          7.20839        2.84267       -1.56964
S          6.22935        4.59476       -1.62012
O          6.66546        1.50739       -0.76517
C          7.65601        0.51973       -0.46322
C          7.18033       -0.90470       -0.67575
O          7.90580        3.38966       -0.08394
C          9.27880        3.76758       -0.12403
C         10.18972        2.56956        0.07192
H         -0.42666       -2.57899        0.51056
H         -1.92793       -1.69565        0.17950
H         -0.42003       -0.82020        0.49199
H         -0.85350       -2.70763       -1.88892
H         -1.14934       -0.95887       -1.97109
H          0.68324        0.53069       -0.80474
H          1.46167        1.99326       -1.33136
H         -1.40157        1.50838       -2.15354
H         -0.98034        2.23835       -0.57896
H         -0.48763        3.01384       -2.09304
H          5.22617       -0.40539       -2.25917
H          3.12183        0.80043        0.66279
H          4.80956        0.63849        0.35048
H          4.70094        2.86123       -0.18117
H          2.99640        2.86341       -0.23068
H          4.05934        1.64548       -3.84285
H          8.53244        0.66735       -1.09814
H          7.94118        0.64829        0.58363
H          6.19840       -1.08172       -0.23179
H          7.11770       -1.12995       -1.74521
H          7.89123       -1.61507       -0.24255
H          9.50855        4.27838       -1.06371
H          9.44033        4.47446        0.69530
H         10.20564        1.94750       -0.82745
H         11.21833        2.88351        0.26860
H          9.85118        1.94363        0.90373
