38

C          1.16936       -0.11810       -0.16315
O          0.79871       -0.59336        1.13018
C          0.94432       -1.95119        1.24330
C          2.22913       -2.50919        1.14754
C          2.45179       -3.89072        1.30547
C          3.85260       -4.41573        1.15083
C          1.35941       -4.72714        1.59775
C          1.48389       -6.22321        1.82840
C          1.32589       -6.64791        3.26227
C          2.41154       -6.69625        4.11446
N          2.34104       -7.03526        5.41408
C          1.12630       -7.32747        5.87909
N          1.01166       -7.63442        7.21896
N          0.00651       -7.30008        5.15402
C          0.12125       -6.98041        3.85791
N         -1.08046       -6.99132        3.15042
C          0.07944       -4.14524        1.69133
C         -0.14506       -2.77195        1.53121
O         -1.46385       -2.43845        1.67345
C         -1.83021       -1.06975        1.63426
H          0.75186        0.88706       -0.27755
H          0.75726       -0.74687       -0.96043
H          2.25699       -0.04086       -0.25398
H          3.07593       -1.85166        0.96365
H          4.19784       -4.87104        2.08294
H          3.89504       -5.15183        0.34153
H          4.55698       -3.61649        0.89513
H          0.75001       -6.73847        1.19500
H          2.44685       -6.59422        1.45701
H          3.41330       -6.45744        3.76886
H          0.08472       -7.38228        7.53440
H          1.79052       -7.22616        7.71719
H         -1.80546       -7.27423        3.80677
H         -1.04640       -7.61233        2.35146
H         -0.78348       -4.77263        1.90841
H         -1.32839       -0.49639        2.41949
H         -1.66057       -0.64541        0.64035
H         -2.90607       -1.01285        1.82861
