35

C          1.00680        0.11393       -0.30338
C          0.72845       -1.37872       -0.39787
C          1.16202       -2.15883        0.84659
C          0.46594       -1.75489        2.15141
C         -1.05869       -1.91360        2.15735
C         -1.56719       -3.34667        1.96001
C         -1.12687       -4.34911        3.03354
C         -1.59237       -4.02711        4.45809
C         -3.11174       -3.99683        4.66019
C         -3.84240       -5.30534        4.34528
C         -3.39916       -6.47050        5.21728
H          0.40440        0.58653        0.47797
H          0.76118        0.60343       -1.25134
H          2.06325        0.30333       -0.08888
H         -0.33488       -1.54158       -0.60235
H          1.27321       -1.77819       -1.26213
H          1.00611       -3.22829        0.66275
H          2.24365       -2.03231        0.98070
H          0.89847       -2.33977        2.97169
H          0.70756       -0.71057        2.38170
H         -1.44592       -1.51661        3.10267
H         -1.49389       -1.27896        1.37635
H         -2.66204       -3.32372        1.91123
H         -1.23886       -3.71752        0.98212
H         -1.48716       -5.34479        2.74906
H         -0.03357       -4.42563        3.03395
H         -1.15129       -4.76157        5.14222
H         -1.18105       -3.05924        4.76806
H         -3.31425       -3.72435        5.70358
H         -3.54751       -3.19592        4.05151
H         -4.91658       -5.14617        4.50042
H         -3.71981       -5.56946        3.28970
H         -3.50247       -6.22730        6.27942
H         -4.01565       -7.35127        5.01053
H         -2.35767       -6.74381        5.02405
