26

C          1.00387       -0.09284       -0.04281
C          0.46315       -1.43588       -0.52358
C          1.03867       -2.62727        0.22903
O         -0.97863       -1.46691       -0.56002
C         -1.70153       -1.26722        0.56814
O         -1.23129       -1.12468        1.69096
N         -3.04782       -1.11510        0.35333
C         -3.79277       -1.30892       -0.82252
C         -3.40148       -2.18017       -1.84403
C         -4.18345       -2.32547       -2.99316
C         -5.36070       -1.59428       -3.13184
C         -5.76335       -0.74154       -2.10714
Cl        -7.21016        0.17460       -2.28104
C         -4.99877       -0.61209       -0.94666
H          0.82138        0.06759        1.02367
H          0.51749        0.72948       -0.57846
H          2.08389       -0.02742       -0.20775
H          0.76401       -1.54067       -1.57313
H          0.81208       -2.58489        1.29807
H          0.61013       -3.56015       -0.15252
H          2.12634       -2.67042        0.11395
H         -3.51161       -0.69495        1.14793
H         -2.50589       -2.78883       -1.75594
H         -3.87099       -3.01123       -3.77695
H         -5.95779       -1.69646       -4.03383
H         -5.32826        0.06627       -0.16454
