38

C          1.11409        0.33724       -0.34564
C          0.73044       -0.89577       -1.15037
C          1.15643       -2.21282       -0.49493
C          0.61251       -2.45328        0.91726
C         -0.91333       -2.54530        1.01955
C         -1.52457       -3.80970        0.40458
C         -1.17127       -5.10150        1.14076
O         -1.66642       -5.04877        2.48888
C         -0.73503       -5.01573        3.46854
O          0.47843       -5.01291        3.35726
C         -1.42824       -5.02255        4.76213
C         -1.55813       -6.22732        5.45301
C         -2.17944       -6.23670        6.70368
C         -2.62023       -5.04589        7.29153
N         -3.33528       -5.08129        8.49441
C         -2.53636       -3.85696        6.55704
C         -1.92200       -3.83415        5.30138
H          0.54840        0.39724        0.58900
H          0.89825        1.24417       -0.91931
H          2.18199        0.33420       -0.10518
H         -0.34925       -0.89118       -1.33415
H          1.21060       -0.83126       -2.13438
H          0.86683       -3.04257       -1.14988
H          2.25262       -2.23603       -0.44515
H          1.06933       -3.36788        1.30891
H          0.95741       -1.65019        1.57872
H         -1.19508       -2.48750        2.07739
H         -1.37053       -1.66905        0.54705
H         -2.61528       -3.69125        0.42915
H         -1.23889       -3.89932       -0.64879
H         -1.67873       -5.94101        0.65244
H         -0.09825       -5.31389        1.08941
H         -1.18763       -7.15273        5.02079
H         -2.30749       -7.18322        7.22238
H         -3.33131       -4.20016        8.99916
H         -3.08835       -5.86345        9.09343
H         -2.94257       -2.93450        6.96442
H         -1.83330       -2.89911        4.75546
