22

Cl        -2.08825       -0.16012       -0.35403
C         -0.37303       -0.04055       -0.14704
C          0.34959       -1.23862       -0.08695
C          1.73533       -1.21536        0.06002
C          2.40098        0.00223        0.15289
C          1.68064        1.19922        0.10418
C          0.28059        1.20339       -0.05217
C         -0.43822        2.49441       -0.09771
C         -1.22540        2.86927        1.01017
C         -1.92781        4.07462        1.02736
C         -1.84547        4.93825       -0.05978
C         -1.06729        4.59709       -1.16912
Cl        -1.01241        5.73616       -2.47165
C         -0.36723        3.37789       -1.19889
Cl         0.57439        2.94970       -2.59839
H         -0.16425       -2.19354       -0.16047
H          2.29453       -2.14744        0.09725
H          3.48307        0.02523        0.25958
H          2.22438        2.13957        0.17857
H         -1.30157        2.20697        1.87217
H         -2.53892        4.33611        1.88812
H         -2.39309        5.87804       -0.03972
