21

C          0.97355        0.10180       -0.08162
C          0.31521        1.06357       -0.75326
C         -1.18517        1.12600       -0.82372
C         -1.75894        2.38751       -0.20529
O         -2.61702        3.07870       -0.74082
O         -1.25485        2.60252        1.04232
C         -1.78471        3.75898        1.69213
C          1.12958        2.09300       -1.46000
O          2.34868        2.15864       -1.41610
O          0.32032        2.92787       -2.15520
C          1.00950        3.96545       -2.85372
H          0.44730       -0.68108        0.45488
H          2.06044        0.07142       -0.04626
H         -1.50522        1.07570       -1.87121
H         -1.64955        0.27429       -0.31233
H         -1.47838        4.66499        1.16026
H         -2.87565        3.70030        1.76272
H         -1.37639        3.79561        2.70582
H          1.60620        4.56804       -2.16152
H          1.63940        3.53969       -3.64073
H          0.26214        4.61408       -3.31897
