15

O          2.25421        0.03607        0.01064
C          0.89328       -0.01997        0.00538
C          0.19537        1.17839        0.00248
C         -1.20182        1.16262       -0.00313
C         -1.92089       -0.04216       -0.00572
N         -3.32759        0.07568       -0.00646
C         -3.96590       -0.90782       -0.04432
S         -4.89145       -2.20513       -0.09301
C         -1.18530       -1.24177       -0.00133
C          0.21564       -1.23243        0.00354
H          2.60614       -0.86917        0.00869
H          0.73168        2.12303        0.00508
H         -1.74144        2.10749       -0.00469
H         -1.67964       -2.20924       -0.00022
H          0.75181       -2.17650        0.00690
