19

N          0.89884        0.05348       -0.26300
C          0.12445       -0.47824       -1.27878
N          0.58279       -1.60789       -1.84934
C         -0.12794       -2.18310       -2.83254
N          0.35108       -3.34958       -3.40866
C         -1.30554       -1.57369       -3.19284
N         -2.27205       -1.80625       -4.12753
C         -3.22273       -0.83114       -3.99002
N         -4.30600       -0.80982       -4.77643
N         -2.92162        0.00887       -3.03256
C         -1.72038       -0.43015       -2.54101
N         -1.01975        0.14770       -1.55204
H          0.31568        0.60485        0.35184
H          1.46190       -0.67360        0.15395
H         -0.35590       -4.04331       -3.60809
H          1.13259       -3.69654       -2.85916
H         -2.29027       -2.55721       -4.79861
H         -4.28070       -1.18472       -5.71766
H         -4.86477        0.03872       -4.71116
