29

O          0.89404       -0.06660       -2.46247
C          1.99761       -0.21064       -1.97260
O          2.54581       -1.40935       -1.67556
C          2.91775        0.90736       -1.68502
C          4.17120        0.89217       -2.32120
C          5.02785        1.98777       -2.21012
C          4.63762        3.10287       -1.47166
C          3.39715        3.11775       -0.82942
C          2.53221        2.01396       -0.91665
C          1.20543        2.15333       -0.27384
O          0.59566        3.21077       -0.43443
N          0.61984        1.13281        0.43356
C          1.15282       -0.01466        1.03793
C          0.28284       -1.09425        1.22434
C          0.74568       -2.29017        1.77345
C          2.07413       -2.40109        2.17502
C          2.93484       -1.31213        2.03839
C          2.47606       -0.11807        1.47240
H          3.33259       -1.36064       -1.09869
H          4.45949        0.05361       -2.95312
H          5.98204        1.98982       -2.73327
H          5.28561        3.97555       -1.41862
H          3.08834        4.00887       -0.28373
H         -0.38839        1.24048        0.47094
H         -0.75217       -1.03430        0.89460
H          0.06892       -3.13482        1.87707
H          2.43200       -3.33312        2.60566
H          3.96127       -1.39096        2.38818
H          3.15527        0.72712        1.42326
