16

Br         0.98291       -0.08990        0.09865
C          2.83430       -0.03097       -0.01677
C          3.56376        1.05259        0.27412
C          5.02937        1.09621        0.19480
C          5.73669        1.83669        1.15100
C          7.12996        1.92463        1.09533
C          7.82914        1.28321        0.07541
C          7.13604        0.55829       -0.89160
C          5.74256        0.46902       -0.83561
H          3.26662       -0.97310       -0.33267
H          3.07720        1.96357        0.61416
H          5.20952        2.34528        1.95529
H          7.66789        2.49540        1.84786
H          8.91289        1.35304        0.03080
H          7.67906        0.06639       -1.69456
H          5.22403       -0.08523       -1.61404
