53

C          1.20757        0.69433        0.56292
N          0.23682        0.49323       -0.51827
C         -1.08337        0.28520        0.07865
C          0.36234        1.52772       -1.57323
C         -0.78825        2.54282       -1.64716
O         -0.94634        3.36676       -0.73454
C         -1.78620        2.50173       -2.80210
C         -3.15159        2.06848       -2.31071
N         -3.66912        2.78946       -1.27156
O         -3.78353        1.13458       -2.79656
C         -1.34284        1.67833       -4.01049
O         -1.58438        2.05008       -5.15531
C         -0.60553        0.40525       -3.66461
O         -1.48675       -0.31358       -2.80579
C         -0.13538       -0.61866       -4.69085
O         -0.06949       -0.40234       -5.89318
C          0.37210       -1.89484       -4.01313
C          0.65333       -3.12203       -4.84697
O          0.12865       -3.37473       -5.92770
C          1.37187       -4.21171       -4.13736
C          1.00631       -5.54726       -4.32931
O          0.06465       -5.93430       -5.24066
C          1.58036       -6.54464       -3.55036
C          2.53852       -6.20939       -2.59269
C          2.92852       -4.87716       -2.41847
Cl         4.12656       -4.54979       -1.21802
C          2.34355       -3.85931       -3.18413
C          2.72017       -2.41177       -3.07829
O          3.42487       -2.09113       -4.27189
C          1.45870       -1.54050       -2.96029
C          1.84996       -0.05123       -2.98889
C          0.66077        0.93017       -2.96122
H          1.22310       -0.17961        1.22445
H          0.97329        1.58122        1.16201
H          2.22455        0.79901        0.17034
H         -1.35617        1.07778        0.78293
H         -1.88720        0.20618       -0.65138
H         -1.08893       -0.66869        0.61986
H          1.23928        2.15395       -1.34616
H         -1.87435        3.53635       -3.16181
H         -4.54065        2.47567       -0.86263
H         -3.07901        3.39761       -0.70552
H         -2.35223       -0.42121       -3.26309
H         -0.49745       -2.26002       -3.44275
H         -0.13584       -5.16074       -5.81648
H          1.27867       -7.58034       -3.68359
H          2.98149       -6.99590       -1.98545
H          3.37622       -2.20724       -2.22699
H          4.16492       -1.50480       -4.03555
H          1.01828       -1.74812       -1.97456
H          2.55833        0.17442       -2.18309
H          2.40394        0.14683       -3.91793
H          1.02803        1.78246       -3.56084
