44

O          0.88792       -0.05114       -0.05601
C          2.11707       -0.02841       -0.05344
O          2.79395       -1.19566       -0.18547
C          2.90603        1.27990        0.09456
F          2.56320        2.15180       -0.90156
F          2.56321        1.90725        1.26029
C          4.40197        1.06388        0.07012
F          4.74672        0.18597        1.05675
F          4.74672        0.42856       -1.08769
C          5.16832        2.36589        0.21741
F          4.82522        3.22358       -0.77998
F          4.82522        2.97910        1.38119
C          6.66576        2.11461        0.18899
F          7.00419        1.24878        1.18351
F          7.00419        1.49282       -0.97382
C          7.44654        3.40924        0.33544
F          7.10468        4.27006       -0.66098
F          7.10468        4.02573        1.49897
C          8.94289        3.15051        0.30617
F          9.28169        2.28661        1.30173
F          9.28169        2.53084       -0.85722
C          9.72551        4.44393        0.45248
F          9.38464        5.30596       -0.54365
F          9.38464        5.06166        1.61601
C         11.22181        4.18477        0.42316
F         11.56176        3.32185        1.41902
F         11.56176        3.56612       -0.74029
C         12.00384        5.47871        0.56953
F         11.66316        6.34114       -0.42643
F         11.66316        6.09686        1.73298
C         13.50074        5.22135        0.54042
F         13.84139        4.35918        1.53648
F         13.84139        4.60347       -0.62306
C         14.28159        6.51532        0.68680
F         13.93943        7.37767       -0.30866
F         13.93943        7.13351        1.84973
C         15.76993        6.25506        0.65736
F         16.12429        5.39610        1.65501
F         16.12429        5.64067       -0.50697
C         16.52113        7.56335        0.80535
F         16.24043        8.43344       -0.19231
F         16.24043        8.18859        1.97217
F         17.86293        7.36402        0.78280
H          3.77277       -1.20030       -0.18599
