22

N          1.01525        0.18475        0.26354
C          0.64308        0.69303       -1.05145
C          1.14065       -0.19668       -2.19323
C          0.54417       -1.60903       -2.23327
C         -0.97579       -1.68233       -2.42801
C         -1.51125       -1.00667       -3.68806
C         -1.13159       -1.73722       -4.94522
O         -1.83693       -2.51313       -5.56833
O          0.12014       -1.46592       -5.35670
H          0.58557       -0.72512        0.42153
H          2.02251        0.02902        0.29641
H         -0.44315        0.81848       -1.09809
H          1.07788        1.69213       -1.16662
H          0.94781        0.31303       -3.14403
H          2.23259       -0.28695       -2.12421
H          1.03832       -2.17050       -3.03466
H          0.80000       -2.14016       -1.30861
H         -1.26497       -2.74109       -2.43955
H         -1.47146       -1.24064       -1.55573
H         -2.60779       -0.99551       -3.64817
H         -1.20811        0.04169       -3.76781
H          0.23203       -2.01886       -6.15849
