23

Cl        -1.88676       -1.76741       -0.17878
C         -0.64195       -0.57667       -0.05140
C          0.60924       -0.99107        0.41205
C          1.65869       -0.07341        0.55729
Cl         3.12072       -0.70123        1.22845
C          1.46129        1.27024        0.20851
O          2.35025        2.31809        0.32350
C          3.69187        2.11784        0.10429
C          4.21896        1.73199       -1.13547
Cl         3.22239        1.45741       -2.51955
C          5.60212        1.58588       -1.29464
C          6.46635        1.84726       -0.23048
C          5.95132        2.27082        0.99312
C          4.57181        2.41684        1.15590
Cl         3.98460        2.95606        2.68998
C          0.19584        1.67920       -0.24249
C         -0.85189        0.76478       -0.37486
Cl        -2.37633        1.35934       -0.92641
H          0.76285       -2.03473        0.67993
H          6.01555        1.27653       -2.25235
H          7.54043        1.73237       -0.35830
H          6.62759        2.48683        1.81702
H          0.03297        2.72722       -0.48864
