12

O          0.96998       -0.10773        0.03822
C          0.58293        1.00672        0.84119
C          0.97362        0.78936        2.30373
Br         2.95123        0.75592        2.39523
C          0.49463        1.89166        3.23133
Br        -1.42482        1.75858        3.54158
H          1.93721       -0.20070        0.12023
H          1.04242        1.90797        0.42041
H         -0.50107        1.10577        0.73502
H          0.67320       -0.20616        2.64770
H          0.94867        1.82240        4.22488
H          0.68260        2.89203        2.82936
