66

C          1.09575       -0.48287       -0.05759
C          0.90898        0.15434        1.31057
C          1.35576        1.61785        1.34551
C          0.59739        2.52975        0.37550
C         -0.91654        2.55320        0.60789
C         -1.30986        3.10266        1.98284
C         -0.88725        4.56045        2.19180
C         -1.50867        5.51534        1.16779
C         -3.03898        5.53533        1.23131
C         -3.56470        6.06082        2.57048
C         -3.13391        7.50502        2.84550
C         -3.61334        8.47912        1.76326
C         -5.13960        8.50561        1.62362
C         -5.85235        8.88872        2.92382
C         -5.41073       10.24872        3.46801
C         -5.80767       11.41035        2.55341
C         -7.31125       11.70041        2.57908
C         -7.80840       12.21463        3.92982
O         -7.29640       13.53949        4.13576
C         -6.16290       13.67989        4.86748
O         -5.62326       12.79038        5.51427
C         -5.63064       15.09090        4.80272
C         -5.85327       15.79149        3.46575
S         -7.54154       16.44938        3.26962
H          0.46865       -0.00402       -0.81587
H          0.81911       -1.54034       -0.02377
H          2.13952       -0.41008       -0.37855
H         -0.13899        0.06318        1.61746
H          1.49185       -0.40826        2.04834
H          1.25192        1.99516        2.36984
H          2.42601        1.67439        1.11475
H          1.00737        3.54346        0.45126
H          0.79318        2.22184       -0.65720
H         -1.38698        3.14399       -0.18601
H         -1.33594        1.54853        0.49195
H         -2.39375        3.00161        2.10801
H         -0.87691        2.48777        2.77863
H         -1.15479        4.86594        3.20931
H          0.20309        4.65154        2.14911
H         -1.10264        6.52025        1.32505
H         -1.19591        5.24889        0.15303
H         -3.42280        6.14107        0.40352
H         -3.44910        4.53634        1.05214
H         -4.65710        5.97935        2.58175
H         -3.22902        5.42302        3.39491
H         -3.50720        7.80772        3.82988
H         -2.04406        7.57189        2.93069
H         -3.22921        9.48033        1.98522
H         -3.17060        8.22664        0.79388
H         -5.41269        9.19540        0.81868
H         -5.50927        7.52847        1.29316
H         -6.93437        8.87250        2.75872
H         -5.67011        8.12685        3.69054
H         -5.82911       10.37281        4.47018
H         -4.32621       10.27067        3.61875
H         -5.24303       12.30347        2.83807
H         -5.50321       11.20910        1.52098
H         -7.51599       12.45932        1.81399
H         -7.87528       10.80589        2.29627
H         -8.89916       12.30142        3.89780
H         -7.57457       11.54571        4.76350
H         -6.03314       15.66190        5.64455
H         -4.54476       15.00805        4.94425
H         -5.17435       16.64627        3.38811
H         -5.64191       15.12053        2.62596
H         -8.15778       15.25367        3.29861
