23

N          0.91095       -0.09470        0.05650
C          0.45633        1.20131       -0.47070
C          0.99419        1.51474       -1.88804
O          0.60170        0.48026       -2.79360
C          0.51882        2.86709       -2.38065
C          1.15082        4.03760       -1.91407
C          0.73331        5.30326       -2.33919
C         -0.32174        5.40133       -3.23583
O         -0.77276        6.60883       -3.69282
C         -0.95758        4.25346       -3.70022
O         -1.99489        4.36175       -4.58242
C         -0.55151        2.99353       -3.28006
H          0.44089       -0.85064       -0.43850
H          1.91329       -0.20616       -0.08229
H         -0.64004        1.19100       -0.47808
H          0.76700        1.98358        0.23084
H          2.09156        1.51849       -1.87961
H          0.98985       -0.34258       -2.45669
H          1.97953        3.96641       -1.21182
H          1.24037        6.18567       -1.96280
H         -0.22881        7.30623       -3.28849
H         -2.08629        5.32311       -4.73385
H         -1.06546        2.11448       -3.66131
