23

Cl         1.35073        1.55595       -0.28908
C         -0.12348        0.67074       -0.10226
C         -1.29916        1.41031        0.05054
C         -2.51849        0.75898        0.21970
C         -2.57106       -0.63651        0.23476
C         -1.40253       -1.39159        0.05966
O         -1.36383       -2.77470        0.05720
C         -2.53680       -3.48904        0.09784
C         -3.34553       -3.54320       -1.04033
C         -4.50741       -4.31062       -1.02261
C         -4.84596       -5.04888        0.11729
Cl        -6.30798       -5.97226        0.04727
C         -4.01792       -5.02924        1.25245
Cl        -4.43457       -5.96809        2.65379
C         -2.85175       -4.24620        1.23767
Cl        -1.78258       -4.18503        2.60422
C         -0.16854       -0.73126       -0.09965
Cl         1.28315       -1.66674       -0.28915
H         -1.26872        2.49813        0.04518
H         -3.43047        1.33904        0.34613
H         -3.53834       -1.10507        0.38927
H         -3.07217       -2.99029       -1.93620
H         -5.14420       -4.33882       -1.90497
