12

C          1.06044        0.04108        0.01483
C          0.55309        1.47368       -0.06498
C          1.05933        2.21265       -1.29760
O          0.53511        1.64059       -2.48725
H          0.68506       -0.56304       -0.81669
H          0.72252       -0.42625        0.94532
H          2.15448        0.01086       -0.00209
H         -0.54285        1.45409       -0.07226
H          0.87093        2.01452        0.83336
H          0.73218        3.25647       -1.26209
H          2.15288        2.20443       -1.35177
H          0.94928        0.76911       -2.60398
