41

Cl         1.11136       -0.08882        0.07081
C          2.83252       -0.08450        0.06899
C          3.52586       -1.22854        0.45970
C          4.92124       -1.22523        0.45951
C          5.62118       -0.08081        0.05435
C          4.92086        1.08123       -0.31448
C          3.51945        1.06902       -0.31229
C          5.69142        2.33046       -0.66594
C          6.39956        2.93549        0.55368
C          7.47201        2.14512        1.27744
C          8.17644        2.81766        2.29241
C          9.13985        2.15721        3.04527
C          9.37338        0.82590        2.77171
N          8.72589        0.13726        1.81117
C          7.79753        0.79751        1.06536
C          7.10264       -0.04560        0.05503
C          7.79019       -0.70183       -0.91938
C          9.30439       -0.69316       -1.08646
C          9.84938       -2.12969       -1.08655
N          9.24739       -2.96082       -2.14515
C          7.78215       -2.97233       -2.00255
C          7.16847       -1.56206       -2.01282
H          2.98929       -2.12135        0.76865
H          5.46383       -2.11393        0.77499
H          2.96237        1.95815       -0.59656
H          6.40700        2.11554       -1.46954
H          5.00337        3.08038       -1.07680
H          6.85660        3.87717        0.22051
H          5.63536        3.19986        1.29795
H          7.96382        3.86311        2.50668
H          9.68462        2.66673        3.83170
H         10.10721        0.25668        3.33451
H          9.54343       -0.21105       -2.04419
H          9.83376       -0.11127       -0.33013
H          9.68582       -2.60184       -0.10975
H         10.93327       -2.10374       -1.24517
H          9.47987       -2.54593       -3.04741
H          7.50875       -3.49818       -1.07909
H          7.35978       -3.55387       -2.82970
H          6.08276       -1.65366       -1.93543
H          7.36051       -1.08463       -2.98296
