45

C          0.83733       -0.12713       -0.05127
C          0.72600       -1.54160        0.50076
N          1.21156       -1.65142        1.88211
C          0.22029       -1.77681        2.96097
C         -0.02034       -3.20110        3.44375
C          2.56584       -1.80461        2.12584
C          3.50053       -0.83355        1.76487
C          4.87769       -1.02023        1.97714
C          5.37796       -2.17680        2.59334
N          6.78481       -2.32968        2.65134
N          7.17686       -2.59768        3.80436
C          8.58027       -2.72581        3.84529
C          9.36135       -1.61557        4.21920
C          8.74493       -0.33685        4.42558
N          8.27320        0.71063        4.59321
C         10.74501       -1.74168        4.41311
C         11.35927       -2.98607        4.23558
N         12.79717       -3.13322        4.50252
O         13.41457       -2.12686        4.87329
O         13.29522       -4.25579        4.35059
C         10.60833       -4.09590        3.83326
C          9.22189       -3.96602        3.63846
C          8.48653       -5.13474        3.24712
N          7.94334       -6.11192        2.93669
C          4.44953       -3.13872        3.02214
C          4.78612       -4.40078        3.76511
C          3.07814       -2.94648        2.74469
H          0.58901        0.62743        0.70191
H          0.16439        0.00351       -0.90500
H          1.84845        0.07231       -0.41928
H         -0.33183       -1.83222        0.46347
H          1.25026       -2.24699       -0.15522
H          0.50845       -1.14187        3.80667
H         -0.74050       -1.38153        2.60773
H          0.72273       -3.49076        4.19447
H         -0.99155       -3.27689        3.94307
H          0.00395       -3.92823        2.62592
H          3.17292        0.10447        1.32773
H          5.56484       -0.23991        1.65661
H         11.32488       -0.87093        4.72064
H         11.08450       -5.06756        3.68863
H          4.19999       -4.43584        4.69185
H          4.54076       -5.27496        3.15601
H          5.82717       -4.48310        4.06465
H          2.41024       -3.76322        2.99379
