27

C          0.63321       -0.38414       -0.13294
C          0.33195        0.39139       -1.43237
C         -0.39742       -0.58745       -2.37714
C         -0.60889        1.57495       -1.13556
C          0.13529        2.74093       -0.52526
O         -0.25964        3.30031        0.49557
C          1.33979        3.24030       -1.28341
C          2.33521        2.09648       -1.50494
C          3.04606        1.74314       -0.17894
C          3.44432        2.60263       -2.41274
N          4.36442        3.02251       -3.16584
C          1.62913        0.88010       -2.14404
H         -0.21779       -1.01051        0.16038
H          0.82026        0.27447        0.71757
H          1.49809       -1.04530       -0.25417
H          0.22638       -1.46104       -2.59689
H         -1.33156       -0.94691       -1.92943
H         -0.65339       -0.10852       -3.32850
H         -1.08178        1.94516       -2.05300
H         -1.41256        1.27226       -0.45349
H          1.79967        4.06340       -0.72239
H          0.98497        3.65792       -2.23388
H          3.63980        0.82707       -0.28049
H          3.73788        2.54043        0.12328
H          2.35697        1.61543        0.65644
H          2.33585        0.04450       -2.24151
H          1.36412        1.15432       -3.17643
