29

O          1.09113        0.31002       -0.62534
C          2.27026        0.00316       -0.43903
O          2.78856        0.10509        0.80435
C          4.17813        0.29195        1.14064
C          4.78334       -0.97489        1.70210
C          3.98512       -2.05869        2.10580
C          4.56650       -3.27382        2.46705
C          5.95218       -3.40844        2.46900
C          6.75786       -2.32150        2.13392
C          6.17835       -1.10805        1.75796
C          3.05179       -0.51004       -1.60471
C          4.09573       -1.43520       -1.51331
C          4.72005       -1.93187       -2.66214
C          4.26318       -1.55210       -3.91497
O          4.86658       -2.10508       -5.00321
C          3.20515       -0.66172       -4.04019
C          2.60807       -0.13894       -2.88733
H          4.73649        0.65870        0.27294
H          4.21601        1.06732        1.91438
H          2.89889       -1.98239        2.09362
H          3.93473       -4.11908        2.72836
H          6.40366       -4.36134        2.73230
H          7.83978       -2.42592        2.14746
H          6.82361       -0.27901        1.47501
H          4.42610       -1.83876       -0.56912
H          5.53679       -2.64402       -2.57274
H          4.37077       -1.85033       -5.79872
H          2.82016       -0.37586       -5.01397
H          1.76088        0.53783       -2.99469
