24

C          0.87007        0.00650       -0.07669
C          0.57988        1.33272        0.60395
O          1.05486        2.42161       -0.19993
C          2.38845        2.68561       -0.12302
O          3.16937        2.12607        0.63829
C          2.79372        3.80047       -1.06030
C          2.22500        3.72474       -2.46089
C          1.85208        4.90423       -3.12262
C          1.34446        4.86041       -4.42252
C          1.21049        3.63929       -5.07911
C          1.60029        2.46298       -4.44343
C          2.11860        2.50581       -3.14790
H          0.47179        0.00085       -1.09668
H          0.42645       -0.82214        0.48213
H          1.94775       -0.16817       -0.15662
H         -0.50278        1.46116        0.70491
H          1.00674        1.37279        1.61238
H          2.49966        4.73974       -0.57665
H          3.88720        3.79690       -1.14223
H          1.95275        5.86888       -2.62967
H          1.05339        5.78033       -4.92287
H          0.80798        3.60474       -6.08789
H          1.50218        1.50988       -4.95666
H          2.42628        1.57347       -2.67905
