20

C          0.43782       -0.58359       -0.12969
C          0.17193        0.63438       -0.99564
C          0.90190        0.55599       -2.31295
O          0.29078        0.29126       -3.35218
N          2.27069        0.74111       -2.38609
C          3.32142        1.15202       -1.58413
O          4.46860        1.03673       -2.01827
C          3.07393        1.76341       -0.22716
C          2.53132        3.17684       -0.33525
H         -0.15338       -1.43627       -0.47903
H          0.15313       -0.37917        0.90722
H          1.48807       -0.88969       -0.14631
H         -0.90292        0.70013       -1.20480
H          0.42044        1.55991       -0.47814
H          2.60878        0.50248       -3.31141
H          2.42043        1.12398        0.36454
H          4.02694        1.78371        0.31567
H          1.77261        3.27699       -1.11713
H          2.08958        3.48560        0.61741
H          3.33761        3.87758       -0.57501
