28

C          0.66787       -0.14055        0.07639
O          0.58005        1.26485       -0.08347
P          1.15672        2.21855        1.23971
O          2.51525        1.50438        1.19103
O          1.20766        3.54896        0.26925
C          1.81416        3.45448       -1.00789
O          1.73339        3.17225        2.56290
C          1.00626        3.20361        3.75280
C         -0.11628        2.48534        3.95308
Cl        -1.10487        2.51204        5.35762
C          1.56220        4.10673        4.77983
C          1.95793        3.56517        6.01858
C          2.39502        4.38877        7.06087
Cl         2.78216        3.63939        8.56857
C          2.47988        5.76898        6.86464
Cl         2.99280        6.85078        8.10979
C          2.12872        6.31802        5.62923
C          1.66658        5.49569        4.59542
Cl         1.18335        6.26764        3.12483
H         -0.04477       -0.61211       -0.60502
H          0.42404       -0.42865        1.10216
H          1.67316       -0.48220       -0.18482
H          2.57122        2.66687       -1.05184
H          1.04040        3.25774       -1.75608
H          2.29125        4.40815       -1.24507
H         -0.55093        1.80594        3.23658
H          1.89418        2.49056        6.18666
H          2.19599        7.39286        5.47644
