18

C          1.15751       -0.06489        0.01274
C          0.57604       -1.38392       -0.49935
C          1.08860       -2.53977        0.36884
C         -0.96721       -1.37003       -0.53960
C         -1.54816       -0.27644       -1.42927
O         -1.44579       -2.62523       -1.02671
H          0.76200        0.18422        1.00322
H          0.92877        0.76235       -0.66581
H          2.24860       -0.12472        0.09041
H          0.95355       -1.55685       -1.51584
H          0.72836       -2.45015        1.39934
H          0.76066       -3.50782       -0.02339
H          2.18366       -2.55141        0.39312
H         -1.36519       -1.25021        0.47461
H         -1.14880       -0.34668       -2.44699
H         -2.63501       -0.38929       -1.51036
H         -1.33910        0.72269       -1.03766
H         -1.09363       -2.74918       -1.92481
