17

N          0.98179        0.01307       -0.12515
C          0.34028        0.30536       -1.18821
O          0.98084        0.61768       -2.32410
N         -1.00689        0.30971       -1.20403
C         -1.71891        0.59268       -2.23319
O         -1.24281        0.92631       -3.44661
C         -3.18860        0.60937       -2.29389
C         -3.90263        0.30881       -1.20074
C         -5.36752        0.30283       -1.17902
O         -6.04245        0.03418       -0.20191
O         -5.93097        0.62564       -2.35306
H          1.98860        0.04817       -0.25280
H          1.93798        0.57817       -2.18043
H         -0.26830        0.91945       -3.42166
H         -3.64645        0.86976       -3.24093
H         -3.43177        0.04959       -0.25797
H         -6.89213        0.57510       -2.16924
