16

O          0.89454       -0.11067        0.11075
N          2.10383        0.05124       -0.09991
O          2.70379       -0.31842       -1.11815
C          2.88424        0.73345        0.93590
C          4.10428        1.33494        0.59358
C          4.85100        1.98860        1.57564
C          4.38592        2.03735        2.89221
C          3.16502        1.42891        3.22466
N          2.68717        1.47555        4.61330
O          3.39400        2.05966        5.44574
O          1.60756        0.92452        4.86684
C          2.40090        0.77413        2.24984
H          4.47961        1.30476       -0.42852
H          5.79748        2.45993        1.31562
H          4.98432        2.54977        3.64460
H          1.45394        0.30140        2.50620
