44

C          1.03250       -0.05312       -0.02165
C          0.52684        1.23203        0.57419
C         -0.52266        1.35655        1.40645
C         -1.24897        0.19318        1.96500
C         -2.62249        0.02646        1.74565
C         -3.31227       -1.03082        2.34572
C         -2.63601       -1.93360        3.16513
C         -1.27020       -1.77992        3.39032
C         -0.58214       -0.71805        2.80052
C         -0.90156        2.72989        1.86824
O         -1.81240        2.85218        2.68582
N         -0.20503        3.80895        1.33766
C         -0.63700        5.21594        1.68428
C         -2.13435        5.44289        1.32810
C         -0.50541        5.41736        3.22100
C          0.18379        6.30886        0.92779
C          1.16544        7.09545        1.56269
C          1.86475        8.08821        0.86602
Cl         3.02173        9.05388        1.69880
C          1.63467        8.30829       -0.48560
C          0.68680        7.53237       -1.13802
Cl         0.40518        7.76470       -2.81969
C         -0.03818        6.55678       -0.44583
C          0.64897        3.57431        0.19248
O          1.29033        2.30440        0.18657
H          0.99997        0.01436       -1.11510
H          0.44986       -0.93421        0.25644
H          2.07120       -0.22560        0.27756
H         -3.17313        0.73852        1.13531
H         -4.38265       -1.13729        2.18947
H         -3.17687       -2.74736        3.64125
H         -0.74306       -2.47440        4.03913
H          0.47812       -0.59570        3.01153
H         -2.81262        4.88988        1.98487
H         -2.40820        6.50123        1.42237
H         -2.36334        5.12281        0.30564
H          0.50156        5.15756        3.56896
H         -0.72115        6.45191        3.51315
H         -1.19792        4.79450        3.79415
H          1.39926        6.96411        2.61637
H          2.18757        9.07364       -1.02210
H         -0.77522        5.97758       -0.99878
H          0.06476        3.68207       -0.72729
H          1.47042        4.29438        0.19561
