68

C          1.53784       -0.04183        0.57338
C          1.10959        0.36773       -0.82295
C          1.18222       -0.75835       -1.86262
C          0.47615       -2.07930       -1.52829
C         -1.04146       -2.06916       -1.42877
O         -1.72915       -3.04982       -1.66078
O         -1.52338       -0.86171       -1.05091
C         -2.92497       -0.66823       -0.94231
C         -3.81748        0.07252       -1.98522
O         -5.03953       -0.06278       -1.82952
C         -3.28462        1.10614       -3.05131
C         -1.78180        0.91686       -3.34177
C         -0.93159        2.06169       -3.89328
C         -1.78338       -0.27134       -4.28905
C         -3.12437       -0.24935       -5.06341
C         -3.89932       -1.61861       -4.96757
C         -2.90934       -2.79476       -5.13589
C         -3.31713       -3.91070       -6.05162
F         -4.16799       -4.74777       -5.41050
C         -3.92559       -3.29549       -7.25956
C         -3.11423       -2.86343       -8.24925
C         -3.78156       -2.83548       -9.56814
O         -3.15474       -3.08586      -10.59336
C         -5.20063       -2.43067       -9.56779
C         -5.84660       -2.22501       -8.40278
C         -5.28559       -2.63354       -7.02834
C         -6.32136       -3.68441       -6.52109
C         -5.11106       -1.53610       -5.92189
O         -6.38454       -1.36901       -5.24316
C         -5.84220       -0.18065       -5.77369
C         -5.47822        0.75646       -4.62882
C         -3.93965        0.95626       -4.49222
C         -3.70473        2.25182       -5.32324
H          0.93793       -0.87306        0.95385
H          1.40453        0.79852        1.26241
H          2.59205       -0.33133        0.58697
H          0.10417        0.79025       -0.76374
H          1.74559        1.19415       -1.16336
H          0.80347       -0.37942       -2.81825
H          2.24300       -0.98229       -2.03607
H          0.71442       -2.77173       -2.34797
H          0.88091       -2.51926       -0.61275
H         -3.41406       -1.63473       -0.75864
H         -3.05600       -0.09474       -0.01656
H         -3.46753        2.09887       -2.62387
H         -1.26843        0.69432       -2.42096
H         -1.26393        3.03507       -3.52702
H          0.10875        1.92564       -3.56883
H         -0.86777        2.06587       -4.98468
H         -1.70673       -1.17799       -3.69110
H         -0.92533       -0.28233       -4.96934
H         -2.90045       -0.06130       -6.12277
H         -4.30566       -1.72282       -3.95336
H         -2.70099       -3.21641       -4.14575
H         -1.94974       -2.42601       -5.51883
H         -2.44415       -4.51616       -6.31959
H         -2.73978       -1.83483       -8.12375
H         -5.66000       -2.33113      -10.54277
H         -6.89370       -1.93455       -8.45027
H         -7.35018       -3.30936       -6.61179
H         -6.26431       -4.62445       -7.08004
H         -6.19078       -3.90941       -5.45605
H         -6.30853        0.29386       -6.62384
H         -5.93514        0.36942       -3.72154
H         -5.99342        1.71502       -4.78063
H         -2.66972        2.49889       -5.52034
H         -4.16959        2.17220       -6.31281
H         -4.15050        3.11641       -4.81447
