29

C          0.87451        0.01451       -0.08385
C          0.59150       -1.45713       -0.31978
O          1.01283       -2.22614        0.81661
C          2.31864       -2.59382        0.84591
O          3.13310       -2.32153       -0.02933
C          2.67030       -3.39866        2.07066
C          2.25951       -2.77675        3.41404
C          0.77143       -2.77250        3.74528
C          2.29469       -4.85072        1.96898
O          3.02241       -5.75745        2.35820
O          1.03934       -5.02632        1.47938
C          0.55355       -6.37694        1.45354
C          0.89836       -7.02187        0.12614
H          0.43760        0.34322        0.86485
H          0.46449        0.62403       -0.89383
H          1.95126        0.20059       -0.01927
H         -0.48717       -1.61190       -0.42646
H          1.06188       -1.81701       -1.24202
H          3.77183       -3.39270        2.07292
H          2.76967       -3.32690        4.21570
H          2.62632       -1.74404        3.46099
H          0.33559       -3.77342        3.68832
H          0.62404       -2.40918        4.76804
H          0.20704       -2.10602        3.08881
H          0.94033       -6.96200        2.29593
H         -0.53402       -6.32840        1.57151
H          1.98292       -7.08159       -0.00903
H          0.48097       -8.03074        0.06488
H          0.50547       -6.42499       -0.70338
