25

C          0.76721       -0.00190        0.03450
O          0.49075        0.02489        1.42619
P          1.06742       -1.35329        2.29853
S          2.76843       -0.37233        2.75964
O         -0.05524       -1.10718        3.49355
C         -0.94638       -0.01271        3.52064
O          1.64409       -2.73147        3.17087
C          0.79646       -3.77994        3.41270
C         -0.10552       -4.25774        2.46545
C         -0.95532       -5.31702        2.80058
C         -0.89549       -5.89770        4.07455
C         -1.76677       -6.98523        4.41095
N         -2.47393       -7.86755        4.67465
C          0.02206       -5.41654        5.01343
C          0.87262       -4.36196        4.67773
H          0.28966        0.86293       -0.43248
H          0.36575       -0.91724       -0.40718
H          1.84397        0.05406       -0.14541
H         -0.40567        0.93729        3.52853
H         -1.63317       -0.06468        2.67065
H         -1.54062       -0.07495        4.43621
H         -0.16158       -3.83636        1.46774
H         -1.66364       -5.69000        2.06239
H          0.07981       -5.85281        6.00900
H          1.58015       -3.97765        5.40960
