21

C          0.35916       -0.14009       -0.64174
C         -0.04222       -1.39015        0.12715
C          0.89930       -1.75511        1.27603
O          0.74210       -0.95278        2.43938
C          1.43899        0.28610        2.47652
C          2.88713        0.18008        2.95735
C          3.85521       -0.37002        1.92045
H          0.03430        0.76488       -0.12044
H         -0.12179       -0.13127       -1.62524
H          1.44154       -0.09217       -0.79638
H         -1.06527       -1.26906        0.49757
H         -0.04380       -2.22801       -0.58092
H          0.64319       -2.77451        1.59143
H          1.93272       -1.79352        0.93582
H          1.38050        0.82281        1.53117
H          0.89973        0.89897        3.20990
H          3.22462        1.18964        3.22250
H          2.94378       -0.43495        3.86124
H          3.64670        0.02870        0.92281
H          4.88311       -0.09928        2.18275
H          3.81360       -1.46230        1.88239
