43

C          1.06461        0.31616        0.20663
C          0.67584        0.54055       -1.24616
C          1.06783       -0.61908       -2.16986
C          0.50133       -1.99155       -1.78268
C         -0.99950       -2.00357       -1.79274
C         -1.72969       -2.83143       -2.55361
C         -3.22326       -2.74141       -2.67508
C         -3.65229       -2.45148       -4.11955
C         -3.27995       -3.53996       -5.13690
C         -3.84161       -4.93003       -4.82060
C         -5.37144       -5.00633       -4.81294
C         -6.02961       -4.71775       -6.16655
C         -5.62432       -5.67127       -7.29789
C         -5.94148       -7.13994       -7.03312
O         -7.34048       -7.34046       -6.89230
H          0.52577       -0.53063        0.64218
H          0.82011        1.20090        0.80247
H          2.13860        0.12793        0.29887
H         -0.40136        0.73189       -1.30875
H          1.16728        1.45212       -1.60624
H          0.74540       -0.37092       -3.18994
H          2.16184       -0.69135       -2.20240
H          0.89218       -2.73299       -2.49150
H          0.86163       -2.29388       -0.79410
H         -1.50695       -1.27045       -1.17093
H         -1.22567       -3.58590       -3.15250
H         -3.67707       -3.66753       -2.30801
H         -3.61018       -1.93869       -2.03467
H         -4.73507       -2.28318       -4.14029
H         -3.19688       -1.50689       -4.44570
H         -3.61323       -3.21984       -6.13053
H         -2.18877       -3.61491       -5.21202
H         -3.43697       -5.64593       -5.54467
H         -3.46820       -5.26740       -3.84708
H         -5.67141       -6.00075       -4.46367
H         -5.77334       -4.30628       -4.07144
H         -7.11799       -4.74741       -6.03803
H         -5.80002       -3.69149       -6.47636
H         -6.15856       -5.35570       -8.20246
H         -4.55525       -5.56555       -7.51279
H         -5.60517       -7.74649       -7.87968
H         -5.43625       -7.51935       -6.13989
H         -7.62331       -6.89798       -6.07456
