17

C          0.95868       -0.08002        0.11751
O          0.42774        1.23792        0.25473
C          1.19576        2.08861        0.99982
O          2.24464        1.75454        1.54488
C          0.63324        3.42827        1.02977
S         -0.99027        3.74260        0.55653
C         -0.83955        5.41320        0.87935
C          0.41673        5.73668        1.33918
C          1.25681        4.59552        1.43296
N          2.53343        4.67198        1.85861
H          0.43423       -0.57046       -0.70736
H          0.77863       -0.64836        1.03436
H          2.02645       -0.06252       -0.12426
H         -1.67616        6.07827        0.71485
H          0.71019        6.74731        1.59256
H          2.92750        5.51085        2.27214
H          3.07683        3.82670        2.04466
