29

C          0.92571        0.33137        0.01470
C          0.58048       -0.09705       -1.40363
C          1.03219       -1.52180       -1.73677
C          0.40876       -2.62709       -0.87720
C         -1.11807       -2.73138       -0.95069
C         -1.69049       -3.03634       -2.34116
C         -1.22451       -4.36212       -2.97429
C         -1.62947       -5.57728       -2.13784
C         -1.80171       -4.49466       -4.38647
H          0.37108       -0.25077        0.75647
H          0.66917        1.38530        0.16266
H          1.99611        0.21332        0.21105
H         -0.49662        0.01312       -1.56827
H          1.07137        0.59173       -2.10205
H          0.82454       -1.71809       -2.79501
H          2.12287       -1.57778       -1.62946
H          0.85521       -3.58581       -1.16590
H          0.69646       -2.47744        0.17000
H         -1.44860       -3.50151       -0.24405
H         -1.56439       -1.79722       -0.58953
H         -2.78542       -3.04519       -2.26074
H         -1.44824       -2.20740       -3.01746
H         -0.13287       -4.35615       -3.06878
H         -2.71190       -5.60265       -1.97307
H         -1.34352       -6.50777       -2.64037
H         -1.13540       -5.57253       -1.16165
H         -1.48231       -3.65789       -5.01674
H         -1.45675       -5.41913       -4.86223
H         -2.89658       -4.51022       -4.37020
