98

C          1.52418        0.35337        0.07880
C          0.75452        0.22117        1.39278
C          1.08682        1.38417        2.32637
C         -0.76405        0.15096        1.14758
C         -1.22534       -1.12067        0.42443
C         -0.86885       -2.41994        1.15459
C         -1.43590       -2.50688        2.57641
C         -2.96725       -2.46769        2.63522
C         -3.64649       -3.56420        1.81091
C         -3.21434       -4.97537        2.20706
C         -3.71644       -5.38495        3.59300
C         -5.22176       -5.67719        3.62432
C         -5.63135       -6.85894        2.74606
O         -5.02715       -8.02778        3.30096
C         -3.85881       -8.47252        2.78254
O         -3.39651       -8.16337        1.69356
C         -3.16218       -9.39573        3.75224
C         -3.72404       -9.38747        5.18206
C         -5.17445       -9.88417        5.37994
C         -5.73631      -10.86135        4.33611
C         -5.03975      -12.19862        4.26679
O         -5.50192      -13.17160        3.68887
O         -3.87132      -12.16488        4.94912
C         -3.26715      -13.39510        5.34994
C         -3.67674      -13.64921        6.80021
C         -5.18205      -13.88294        6.97843
C         -5.68415      -15.13333        6.25378
C         -5.25200      -16.43033        6.93651
C         -5.93125      -16.65965        8.28900
C         -7.46260      -16.67164        8.21934
C         -8.02964      -17.71245        7.24680
C         -7.67315      -19.15788        7.61006
C         -8.13445      -19.58390        9.00953
C         -9.65302      -19.46627        9.23583
C        -10.42267      -20.46579        8.37271
C         -9.98532      -19.66872       10.71339
H          1.19534        1.23322       -0.48434
H          1.38214       -0.52751       -0.55508
H          2.59857        0.44986        0.26420
H          1.09363       -0.68961        1.89820
H          0.75445        2.34004        1.91025
H          0.60078        1.24606        3.29860
H          2.16612        1.44167        2.50280
H         -1.29611        0.23480        2.10300
H         -1.08183        1.02015        0.55782
H         -2.31089       -1.06550        0.27890
H         -0.79937       -1.15345       -0.58432
H         -1.21872       -3.26818        0.55503
H          0.21894       -2.53994        1.19878
H         -1.06626       -3.42412        3.04896
H         -1.03761       -1.69531        3.19482
H         -3.28102       -2.53785        3.68261
H         -3.33044       -1.49400        2.28839
H         -4.73297       -3.46022        1.90227
H         -3.43147       -3.41682        0.74660
H         -3.57019       -5.66594        1.43887
H         -2.12418       -5.07244        2.18044
H         -3.15467       -6.26207        3.93146
H         -3.48865       -4.60996        4.33203
H         -5.48589       -5.90771        4.66485
H         -5.79359       -4.78935        3.34032
H         -6.71487       -7.00057        2.81115
H         -5.39010       -6.72701        1.68803
H         -3.16209      -10.39905        3.32041
H         -2.11797       -9.06407        3.81017
H         -3.05929       -9.99505        5.80982
H         -3.65096       -8.37363        5.59790
H         -5.24753      -10.33434        6.37901
H         -5.83921       -9.01137        5.41794
H         -6.78052      -11.06233        4.60623
H         -5.73640      -10.42983        3.33267
H         -3.50838      -14.21842        4.67246
H         -2.18362      -13.24752        5.29981
H         -3.10491      -14.48912        7.20452
H         -3.41261      -12.76635        7.39719
H         -5.40985      -13.93745        8.04790
H         -5.74382      -13.01337        6.62103
H         -6.77431      -15.08116        6.16770
H         -5.32830      -15.16016        5.22117
H         -5.46702      -17.26918        6.26510
H         -4.16552      -16.44300        7.07435
H         -5.56805      -17.60510        8.70671
H         -5.61747      -15.88849        9.00123
H         -7.86089      -16.83565        9.22641
H         -7.83224      -15.68073        7.93172
H         -9.11744      -17.59493        7.19637
H         -7.67977      -17.50884        6.22821
H         -8.09912      -19.82772        6.85511
H         -6.58760      -19.29800        7.54235
H         -7.81667      -20.62052        9.17901
H         -7.60239      -18.98779        9.76088
H         -9.99212      -18.45745        8.97651
H        -10.09383      -21.49185        8.56884
H        -11.49706      -20.40836        8.57366
H        -10.28063      -20.26209        7.30675
H         -9.49929      -18.89991       11.32432
H        -11.06463      -19.58915       10.88102
H         -9.65296      -20.64887       11.06855
