31

C          1.03387        0.05417       -0.24877
C          0.50420        0.73557        0.98163
C         -0.37009        1.94261        0.77194
C          0.77592        0.31742        2.23314
C          1.65149       -0.84213        2.62768
C          2.90729       -0.39890        3.39488
C          2.65405        0.28127        4.75922
C          1.93551       -0.66334        5.73089
C          3.96935        0.76466        5.41212
C          4.74548        1.81598        4.62147
O          3.94495        2.95947        4.36200
H          0.65662        0.51746       -1.16592
H          0.72194       -0.99559       -0.27114
H          2.12660        0.10624       -0.28102
H         -1.30270        1.85141        1.33883
H          0.15340        2.84872        1.09509
H         -0.64244        2.07429       -0.27971
H          0.32380        0.86005        3.06312
H          1.06165       -1.54748        3.22197
H          1.97892       -1.40196        1.74448
H          3.54409       -1.27969        3.54970
H          3.47273        0.27756        2.74333
H          2.00882        1.15537        4.61659
H          2.50346       -1.58830        5.87733
H          1.80455       -0.18896        6.70956
H          0.93772       -0.92766        5.36878
H          3.72038        1.20103        6.38855
H          4.62693       -0.09191        5.60450
H          5.61019        2.14487        5.20700
H          5.12740        1.42455        3.67423
H          3.29454        2.71474        3.68136
