22

Cl        -2.29117        0.49507        1.38230
C         -0.68682        0.27629        0.78378
C          0.12006       -1.32237        1.03551
C          1.83843       -1.56576        0.57925
C          2.72547       -0.06826       -0.13374
C          4.03856       -0.04118       -0.01258
C          3.13778        0.42571        1.33412
C          1.42059        0.35927        1.08774
C          0.89120       -0.26071       -0.75168
Cl        -0.76392       -0.55095       -1.65727
C          2.04206       -0.69019       -1.98014
Cl         1.66439       -1.22306       -3.56816
C          3.62172       -0.56174       -1.55451
C          1.86885        1.56849       -0.48591
C          0.14915        1.68315        0.01408
H         -0.42695       -2.11881        1.53464
H          2.38777       -2.46026        0.85801
H          3.57963        0.74040        2.27299
H          0.89219        0.67614        2.00263
H          4.40625       -0.81155       -2.26515
H          2.43496        2.43786       -0.80731
H         -0.38144        2.62783       -0.07930
