28

C          0.85837       -1.56870        0.52911
C          0.32465       -0.97047        1.83017
C          1.09007        0.26995        2.29972
C          0.48620        1.66055        2.15736
O         -0.28297        2.09992        3.01643
N          0.92712        2.49824        1.16491
C          1.75723        2.16432        0.09294
C          3.02439        2.73370       -0.00816
C          3.85413        2.38729       -1.07737
C          3.39679        1.51697       -2.06806
C          2.10344        1.00362       -1.99946
C          1.28301        1.33317       -0.92028
C         -1.17628       -0.83674        1.75204
O         -1.97550       -1.64052        2.19824
O         -1.60414        0.21969        1.04185
H          0.35088       -1.17106       -0.35250
H          0.68246       -2.65023        0.51494
H          1.93711       -1.41586        0.42025
H          0.51160       -1.73199        2.60149
H          1.21861        0.16169        3.38913
H          2.12139        0.26783        1.93006
H          0.84908        3.47506        1.42211
H          3.39428        3.40605        0.76049
H          4.86026        2.79429       -1.13808
H          4.04283        1.25108       -2.90121
H          1.73024        0.35441       -2.78763
H          0.25759        0.97349       -0.89714
H         -2.57941        0.19104        1.14547
