35

O          1.00198        0.14921        0.15562
C          0.21534        1.06162       -0.48597
N          0.69026        1.37688       -1.70070
C         -0.05183        2.26502       -2.36081
N         -1.17759        2.82667       -1.91305
C         -1.60243        2.47861       -0.69799
N         -2.72375        3.05436       -0.25874
C         -3.18041        2.73376        0.98401
C         -4.38273        3.46839        1.40561
C         -4.36243        4.31263        2.53019
C         -5.51746        4.97191        2.95572
C         -6.71069        4.80389        2.25848
C         -6.74693        3.98896        1.12897
C         -5.58988        3.33250        0.70137
C         -2.51999        1.79518        1.78551
C         -2.99173        1.36282        3.10783
C         -2.22381        1.61016        4.25715
C         -2.69783        1.26192        5.52443
C         -3.93942        0.64460        5.65994
C         -4.70327        0.36475        4.52989
C         -4.23162        0.71825        3.26382
N         -1.37567        1.20937        1.35943
C         -0.92982        1.55971        0.11603
H          1.69687       -0.00136       -0.50838
H          0.28582        2.56050       -3.34892
H         -3.44049        4.46067        3.08949
H         -5.48327        5.61367        3.83231
H         -7.61103        5.31303        2.59222
H         -7.67602        3.86348        0.57919
H         -5.63335        2.70227       -0.18506
H         -1.25139        2.09083        4.16682
H         -2.09759        1.47483        6.40509
H         -4.30991        0.37693        6.64603
H         -5.66852       -0.12455        4.63163
H         -4.84605        0.49159        2.39447
