10

N          1.10369        0.04932       -0.06111
C          2.26058        0.10009       -0.07866
N          3.69089        0.15903       -0.09903
C          4.37620        1.25880       -0.47906
N          5.66602        1.31878       -0.49979
N          3.70670        2.35882       -0.85919
H          4.20396       -0.65949        0.18382
H          6.07642        0.43553       -0.19457
H          2.70191        2.44710       -0.88969
H          4.26210        3.15882       -1.13563
