49

O          1.83203        0.94923       -0.98835
P          2.67136        0.29893        0.07068
C          2.41446       -1.56822        0.13764
C          2.64954       -2.41605        1.42105
C          4.20900       -2.17380        2.19534
C          4.24893       -1.77295        4.10851
C          2.75407       -1.91529        5.02395
C          1.31251       -2.26081        4.16104
C          1.25194       -2.51869        2.44985
O          4.23185        0.37157       -0.27088
C          5.08278       -0.10216        0.73845
C          4.53797       -0.10170        2.28627
C          3.94853        1.29362        2.27266
O          2.71107        1.15992        1.47205
C          2.93529       -0.93343        2.96735
O          3.06835       -2.93844        3.34178
P          4.84531       -3.83721        3.58621
O          5.02197       -4.37902        4.98218
C          4.85006       -5.09036        2.27312
C          3.58147       -5.90070        2.08063
C          3.36130       -6.57967        0.87363
C          2.16651       -7.27209        0.65493
C          1.18066       -7.29942        1.63903
C          1.40039       -6.65884        2.85325
C          2.59944       -5.98162        3.07887
O          6.19972       -2.55703        3.15902
C          6.03769       -0.82198        2.99894
H          1.37494       -1.73108       -0.16847
H          3.04227       -1.99255       -0.65465
H          5.05104       -2.37539        1.52991
H          5.10501       -1.69594        4.79202
H          2.75722       -1.82511        6.10461
H          0.38251       -2.34536        4.72072
H          0.26862       -2.59906        1.98725
H          5.93969        0.58770        0.72311
H          5.51250       -1.03548        0.37333
H          4.57606        2.06810        1.82109
H          3.65907        1.63453        3.27100
H          2.71907       -0.31650        3.87769
H          2.03832       -0.65483        2.38862
H          5.08222       -4.59729        1.32285
H          5.67759       -5.77941        2.47764
H          4.11026       -6.56208        0.08548
H          1.99882       -7.78335       -0.28923
H          0.24313       -7.81933        1.46290
H          0.63692       -6.67090        3.62693
H          2.72399       -5.48757        4.04078
H          6.88997       -0.61464        2.34224
H          6.28230       -0.39810        3.98157
