29

O          2.11830        0.40641       -0.74736
N          3.25254        0.16461       -1.17817
C          3.58954       -1.30249       -1.20879
C          3.02728       -1.95028       -2.49490
C          1.59290       -2.49125       -2.33315
C          1.45151       -3.48122       -1.16404
C          2.18794       -2.99208        0.02654
C          3.13085       -2.03119        0.00667
C          3.53797       -1.76590        1.43709
C          4.28677       -3.01600        1.95290
C          3.17371       -4.10769        1.98934
C          1.93353       -3.35293        1.47260
C          2.22080       -2.02102        2.12888
C          1.51459       -1.27564        2.98245
Cl         2.09555        0.25451        3.52933
Cl        -0.01589       -1.80173        3.57898
H          4.68461       -1.32752       -1.25347
H          3.67460       -2.79261       -2.77314
H          3.05616       -1.24531       -3.33541
H          0.90697       -1.64911       -2.17500
H          1.27637       -2.97947       -3.26209
H          0.38948       -3.61380       -0.93221
H          1.85120       -4.45974       -1.45437
H          4.02971       -0.81138        1.62085
H          5.11542       -3.31198        1.29984
H          4.68629       -2.85510        2.96170
H          3.43499       -4.97096        1.36739
H          3.02589       -4.45906        3.01813
H          0.96823       -3.81407        1.67871
