56

C          2.79691       -1.42131       -0.42918
C          2.21326       -2.60342        0.29567
O          2.21528       -3.75230       -0.11780
O          1.69905       -2.18465        1.47077
C          1.01383       -3.08048        2.37978
C          1.23217       -2.41161        3.73567
C          0.27524       -1.20546        3.69644
C         -0.82803       -1.52542        2.64422
C         -0.84570       -0.53942        1.43591
C         -1.08373        0.90693        1.86108
C         -1.36726        1.79225        0.65878
C         -2.73064        1.40108        0.10008
C         -3.27385        2.48798       -0.84170
C         -2.77468        2.31777       -2.24965
O         -2.23508        3.22873       -2.87210
C         -3.04606        0.97527       -2.86253
C         -2.35535       -0.06450       -2.00172
C         -2.74024       -0.05335       -0.47897
C         -4.19965       -0.56469       -0.35171
C         -1.70101       -1.03637        0.22495
C         -2.20744       -2.47836        0.41310
C         -1.05344       -3.37690        0.84003
C         -0.53368       -3.00156        2.23608
C         -1.23644       -3.95116        3.24592
H          2.40647       -0.48441       -0.01452
H          2.50769       -1.45281       -1.48219
H          3.88337       -1.42354       -0.32272
H          1.42468       -4.09392        2.33034
H          0.98349       -3.08155        4.56482
H          2.26617       -2.07976        3.87985
H          0.84532       -0.30952        3.43183
H         -0.15935       -1.03331        4.68660
H         -1.80877       -1.45720        3.13422
H          0.17768       -0.50649        1.04356
H         -0.19734        1.29878        2.37308
H         -1.90736        0.96396        2.58280
H         -1.37517        2.83684        0.99129
H         -0.58011        1.70009       -0.09915
H         -3.41413        1.41675        0.96297
H         -3.01158        3.49056       -0.48642
H         -4.36838        2.44484       -0.88224
H         -2.64203        0.95242       -3.88020
H         -4.12630        0.81661       -2.92585
H         -1.27490        0.11182       -2.10104
H         -2.54520       -1.05958       -2.42515
H         -4.47500       -0.69879        0.70059
H         -4.91762        0.14046       -0.78332
H         -4.35347       -1.51695       -0.86889
H         -0.91403       -1.17452       -0.53451
H         -2.60369       -2.86584       -0.53251
H         -3.01534       -2.52159        1.15221
H         -0.27182       -3.31555        0.08070
H         -1.38583       -4.42294        0.81808
H         -1.06238       -3.67700        4.29058
H         -2.32373       -3.93283        3.10369
H         -0.89889       -4.98464        3.11081
