37

C          1.07498       -0.06125       -0.32253
C          0.74319       -1.12448        0.71450
C          1.15959       -0.73583        2.13619
C          0.51916        0.55054        2.65885
C         -1.00878        0.51212        2.70323
C         -1.61469       -0.40217        3.76928
C         -1.26609       -0.01309        5.20314
C         -1.92164        1.28620        5.61548
O         -2.99276        1.35255        6.20603
O         -1.13892        2.36789        5.21417
C         -1.66346        3.60214        5.61955
C         -2.30128        4.43914        4.69418
Br        -2.48238        4.01991        2.85738
C         -2.82660        5.66646        5.10540
C         -2.71002        6.06787        6.43771
C         -3.26810        7.32007        6.85216
N         -3.72209        8.33771        7.17712
C         -2.03667        5.25527        7.35480
C         -1.49857        4.03279        6.94335
Br        -0.51479        3.02303        8.21556
H          0.53196        0.87062       -0.13793
H          0.79538       -0.40912       -1.32155
H          2.14706        0.15893       -0.32507
H         -0.32851       -1.34787        0.67735
H          1.25726       -2.05350        0.44325
H          0.92303       -1.56404        2.81419
H          2.24954       -0.61669        2.16724
H          0.92548        0.77307        3.65138
H          0.82904        1.39472        2.03163
H         -1.35809        1.52520        2.87727
H         -1.41667        0.24121        1.72416
H         -2.70606       -0.38194        3.65318
H         -1.30294       -1.43640        3.58689
H         -1.63419       -0.78994        5.88534
H         -0.18766        0.04053        5.38059
H         -3.32733        6.31338        4.38561
H         -1.92810        5.57885        8.38843
