26

C          1.04984        0.09687        0.09800
C          0.49011        1.47895        0.40256
N          0.99001        2.44371       -0.57421
C          0.06677        3.16669       -1.35256
C         -1.05569        3.74260       -0.73144
C         -1.98042        4.49357       -1.45070
C         -1.79274        4.69929       -2.81177
C         -0.67975        4.16248       -3.47130
C         -0.51229        4.39749       -4.84683
C          0.57872        3.87781       -5.53873
C          1.51719        3.11351       -4.86232
C          1.36574        2.87326       -3.49321
C          0.27135        3.38825       -2.75234
H          0.72172       -0.24694       -0.88885
H          0.70818       -0.62649        0.84457
H          2.14499        0.10332        0.10367
H         -0.60315        1.41054        0.42031
H          0.81898        1.79164        1.39944
H          1.79139        2.10841       -1.09198
H         -1.20434        3.63162        0.33944
H         -2.83869        4.92809       -0.94599
H         -2.52328        5.29418       -3.35580
H         -1.23856        4.99458       -5.39466
H          0.69260        4.06996       -6.60191
H          2.37043        2.70076       -5.39397
H          2.12757        2.26599       -3.01567
