20

C          0.97416        0.06488       -0.05202
C          0.55339        0.25285        1.37394
C          0.36915       -0.84267        2.20377
C          0.01052       -0.62124        3.52895
C         -0.14797        0.68467        4.00752
C         -0.52255        0.88148        5.44633
C          0.07229        1.73352        3.10957
C         -0.05519        3.17277        3.51559
N          0.41798        1.52550        1.81243
H          0.70312        0.93984       -0.65160
H          0.48166       -0.80762       -0.49303
H          2.05842       -0.07223       -0.10459
H          0.49941       -1.85350        1.83225
H         -0.14152       -1.47118        4.18981
H         -1.45235        0.34658        5.66746
H          0.27186        0.49641        6.09421
H         -0.68287        1.93072        5.70647
H         -1.07745        3.38848        3.84103
H          0.64558        3.40559        4.32327
H          0.17409        3.83615        2.67479
