32

C          1.14521       -0.26947        0.18280
C          0.35933       -1.54864       -0.07341
C         -0.63732       -1.39954       -1.21945
N          1.22937       -2.67281       -0.28601
C          0.95917       -3.71551        0.57267
O          1.52696       -4.79496        0.46253
N         -0.02651       -3.32901        1.45029
C         -0.60012       -4.15322        2.45765
C          0.08535       -5.25780        2.97089
C         -0.49020       -6.07603        3.95004
C         -1.79051       -5.82733        4.42456
N         -2.31960       -6.74813        5.45137
O         -1.64207       -7.74870        5.72473
O         -3.39126       -6.47250        5.99513
C         -2.52280       -4.74051        3.91578
C         -3.95130       -4.42537        4.30031
F         -4.79834       -5.46578        4.07966
F         -4.08973       -4.03990        5.59457
F         -4.47530       -3.39574        3.56981
C         -1.89352       -3.90826        2.95292
C         -0.39417       -2.02567        1.17813
O         -1.19305       -1.32318        1.78721
H          0.56242        0.45555        0.76078
H          1.43720        0.20887       -0.75906
H          2.06723       -0.46967        0.74123
H         -1.32964       -0.57078       -1.03436
H         -0.12276       -1.21218       -2.16826
H         -1.24022       -2.30675       -1.34716
H          1.87244       -2.79491       -1.05863
H          1.09682       -5.49840        2.64828
H          0.10008       -6.91170        4.32700
H         -2.47370       -3.07580        2.55228
