34

C          0.60655        0.15763        0.02851
C          0.61045       -0.78546        1.22060
O          1.12323       -0.14411        2.39800
C          2.47327        0.02562        2.43545
O          3.24590       -0.32243        1.55353
C          2.84911        0.70050        3.64683
C          2.23461        0.68725        4.88561
N          2.94712        1.40298        5.81016
C          3.98326        1.87117        5.15524
N          3.95028        1.51551        3.83186
C          4.84581        2.04654        2.79530
C          4.67059        3.56870        2.68109
C          6.27053        1.54253        2.98423
C          7.36690        2.40082        3.16416
C          8.66404        1.89267        3.28063
C          8.88786        0.51995        3.22463
C          7.81544       -0.34830        3.04984
C          6.52049        0.15804        2.92544
H          0.10150        1.09628        0.27710
H          0.10281       -0.30338       -0.82592
H          1.62444        0.41686       -0.27903
H         -0.41887       -1.08179        1.44789
H          1.17149       -1.70278        1.00841
H          1.32407        0.17036        5.16355
H          4.76730        2.48691        5.57818
H          4.50609        1.65014        1.83338
H          4.99247        4.09184        3.58863
H          5.24579        3.96799        1.83873
H          3.61765        3.82517        2.51483
H          7.24233        3.47975        3.20479
H          9.50288        2.57241        3.40884
H          9.89743        0.12755        3.31203
H          7.98444       -1.42105        3.00159
H          5.70244       -0.54445        2.77020
