18

C          1.09069       -0.33570       -0.20656
S          0.38247       -1.59960        0.88283
C          0.84300       -3.08170        0.00804
C          0.39742       -4.31279        0.46319
N          0.70940       -5.47178       -0.15729
C          1.49352       -5.34489       -1.25744
C          1.90151       -6.42527       -2.00664
N          2.68066       -6.35550       -3.10639
C          3.05871       -5.12261       -3.45395
N          2.73109       -3.99457       -2.81488
C          1.95989       -4.10724       -1.73390
N          1.62565       -2.98323       -1.09012
H          0.85199        0.65209        0.19745
H          0.66488       -0.40605       -1.21133
H          2.17877       -0.43125       -0.25712
H         -0.22915       -4.40559        1.34428
H          1.59298       -7.42782       -1.72312
H          3.68750       -5.02689       -4.33311
