37

O          1.18587       -0.40558        0.01652
C          2.39068       -0.24994       -0.13914
N          3.08766        0.70571        0.55662
C          4.52746        0.90468        0.60092
C          4.96857        2.34980        0.82756
C          4.51230        3.18282        1.99916
N          4.62258        4.52189        1.74342
C          4.30909        5.41117        2.71177
C          3.87003        5.04639        3.96811
C          3.56792        6.09878        4.98664
F          4.69521        6.69193        5.46539
F          2.79689        7.10474        4.49138
F          2.90532        5.62113        6.07550
C          3.76986        3.67878        4.23458
C          4.10375        2.73333        3.25534
Cl         4.00598        1.08246        3.72856
C          3.09833       -1.08197       -1.13074
C          4.04578       -2.01311       -0.68039
C          4.73972       -2.79868       -1.59892
C          4.47372       -2.67213       -2.96056
C          3.50576       -1.76828       -3.40568
C          2.80253       -0.95699       -2.49638
C          1.74138       -0.00938       -2.99590
F          1.92647        0.31587       -4.31170
F          0.48837       -0.53269       -2.93121
F          1.70879        1.18595       -2.34752
H          2.51582        1.15385        1.26469
H          4.93752        0.23149        1.35844
H          4.95726        0.58195       -0.35336
H          6.06653        2.35507        0.85265
H          4.68695        2.90352       -0.07996
H          4.43457        6.45509        2.42987
H          3.44115        3.34629        5.21889
H          4.24035       -2.12845        0.38340
H          5.48177       -3.51498       -1.25398
H          5.01163       -3.28758       -3.67876
H          3.29887       -1.69848       -4.47361
