35

C          0.98919        0.06733       -0.26075
C          0.37440       -1.31032       -0.46013
N          0.96982       -2.25021        0.47246
C          0.08856       -3.10733        1.11728
N         -0.96504       -3.59228        0.48589
C         -1.72083       -4.38692        1.23003
O         -2.86672       -4.94034        0.69489
C         -3.01677       -4.68427       -0.69470
N         -1.51108       -4.69944        2.50111
C         -0.43141       -4.16888        3.05634
N         -0.12805       -4.46854        4.37913
C         -1.15169       -5.10434        5.20447
C         -0.55367       -6.26366        5.99141
C          0.88982       -3.65248        5.03876
C          2.27950       -4.23256        4.81461
N          0.38888       -3.36587        2.38232
H          0.77289        0.44429        0.74520
H          0.58021        0.77754       -0.98556
H          2.07716        0.03844       -0.38028
H         -0.71196       -1.21773       -0.34080
H          0.56885       -1.65285       -1.48256
H          1.54907       -1.84924        1.20278
H         -3.13523       -3.61313       -0.89235
H         -2.18182       -5.10064       -1.26895
H         -3.93113       -5.18444       -1.02882
H         -1.58050       -4.36761        5.89476
H         -1.99011       -5.50647        4.62521
H          0.22814       -5.92534        6.67851
H         -1.32935       -6.75874        6.58400
H         -0.11147       -7.00513        5.31756
H          0.85141       -2.60547        4.71202
H          0.70598       -3.62190        6.12006
H          2.54905       -4.24452        3.75412
H          3.02764       -3.63561        5.34562
H          2.33974       -5.26128        5.18468
