45

C          1.05782        0.28511        0.50192
C          0.92202        1.39577       -0.52840
C          1.26942        0.95340       -1.95206
C          0.40563       -0.17705       -2.52081
C         -1.09735        0.11339       -2.58891
C         -1.49757        1.31783       -3.44856
C         -1.05146        1.26102       -4.91418
C         -1.51784        0.02920       -5.69755
C         -3.03645       -0.14890       -5.79541
C         -3.78474        0.97583       -6.51917
C         -3.33450        1.25450       -7.95978
C         -3.38985        0.05150       -8.90467
N         -4.74883       -0.44317       -9.06648
C         -5.69109        0.13982       -9.83861
N         -6.95253        0.07439       -9.60868
N         -5.25826        0.79584      -10.92895
H          0.32044       -0.50628        0.33850
H          0.89689        0.68423        1.50851
H          2.05724       -0.16028        0.47035
H         -0.09227        1.80755       -0.49188
H          1.59734        2.21328       -0.24807
H          1.21365        1.82562       -2.61376
H          2.31714        0.62731       -1.97280
H          0.77562       -0.42462       -3.52272
H          0.55672       -1.08397       -1.92322
H         -1.60601       -0.78312       -2.96279
H         -1.48571        0.26555       -1.57495
H         -2.58801        1.42580       -3.40672
H         -1.09560        2.23375       -2.99910
H         -1.40118        2.16906       -5.41950
H          0.04332        1.30463       -4.95904
H         -1.08880        0.07579       -6.70526
H         -1.09216       -0.87316       -5.24341
H         -3.24202       -1.10113       -6.29863
H         -3.45879       -0.25636       -4.78947
H         -4.85461        0.73334       -6.51808
H         -3.69284        1.90352       -5.94169
H         -3.95984        2.06145       -8.36222
H         -2.30979        1.64395       -7.94890
H         -2.95734        0.32746       -9.87294
H         -2.76510       -0.76339       -8.52490
H         -5.10779       -0.87471       -8.22391
H         -7.11785       -0.46450       -8.75830
H         -4.59049        0.25712      -11.46402
H         -6.05533        1.04760      -11.50516
