48

C          1.60179        0.64289       -1.33678
C          1.49378        0.77084        0.17264
C          1.56337        2.21816        0.68572
C          0.28979        3.05758        0.50994
C         -1.00544        2.51416        1.14662
C         -1.34021        2.89373        2.58609
C         -1.67251        4.18607        2.85214
C         -2.27328        4.63993        4.11107
C         -3.64057        4.94930        4.14052
C         -4.26530        5.27499        5.34592
C         -3.52776        5.29924        6.52829
C         -2.16323        5.00976        6.50364
C         -1.53585        4.68522        5.29885
C         -1.57376        1.77370        3.60572
O         -2.26840        0.67047        3.03102
C         -3.68173        0.84432        2.94592
C         -4.36555        0.79783        4.30400
O         -0.37490        1.39711        4.29060
C          0.49170        0.49766        3.62853
C          0.13002       -0.96154        3.82504
H          0.83679        1.23190       -1.84899
H          1.47165       -0.40543       -1.62841
H          2.58785        0.96508       -1.68433
H          0.57524        0.27175        0.49141
H          2.31808        0.20424        0.62334
H          1.83792        2.21761        1.74590
H          2.38828        2.72924        0.17242
H          0.49126        4.06984        0.88176
H          0.11251        3.16699       -0.56758
H         -1.83242        2.91192        0.53763
H         -1.08572        1.43429        1.00278
H         -1.60082        4.94684        2.08086
H         -4.23325        4.90930        3.22969
H         -5.32995        5.49483        5.36537
H         -4.01638        5.53629        7.46981
H         -1.58986        5.01873        7.42717
H         -0.47811        4.43039        5.29726
H         -2.18808        2.14752        4.42360
H         -3.92909        1.76621        2.40851
H         -4.05551        0.01070        2.34233
H         -4.22885        1.73611        4.85077
H         -5.44245        0.64651        4.18694
H         -3.95352       -0.00352        4.92492
H          0.53612        0.72190        2.57357
H          1.49264        0.66496        4.04075
H         -0.78730       -1.22425        3.29233
H          0.92805       -1.60008        3.43226
H         -0.02577       -1.19053        4.88227
