36

C          1.15906       -0.45188       -0.05096
C          0.93471       -0.62668        1.44366
C          1.49165        0.52047        2.29277
C          0.98280        1.92243        1.93845
C         -0.54015        2.07868        1.90430
C         -1.22170        2.02169        3.27610
C         -1.18766        3.34012        4.05552
C         -1.97837        4.49791        3.43793
C         -3.47627        4.39646        3.68856
O         -3.93020        4.86712        4.73497
N         -4.29019        3.75842        2.76422
C         -3.89422        3.27287        1.45214
C         -5.70728        3.63229        3.06893
H          0.61171        0.41010       -0.44385
H          0.80632       -1.33747       -0.58941
H          2.22156       -0.31820       -0.27612
H         -0.13535       -0.75735        1.63955
H          1.41847       -1.55789        1.76224
H          1.27763        0.30905        3.34677
H          2.58548        0.52369        2.20245
H          1.41363        2.64323        2.64349
H          1.37780        2.19848        0.95289
H         -0.76198        3.02627        1.40630
H         -0.97886        1.30625        1.26418
H         -2.26388        1.71269        3.14759
H         -0.75954        1.23963        3.88906
H         -1.57179        3.14734        5.06561
H         -0.14447        3.65420        4.17839
H         -1.65975        5.42359        3.93798
H         -1.74415        4.67064        2.38829
H         -3.89774        2.17883        1.47351
H         -4.62183        3.61420        0.70950
H         -2.91365        3.62449        1.14495
H         -5.91358        3.75687        4.13494
H         -6.24793        4.40243        2.51014
H         -6.05776        2.64323        2.75861
