30

C          1.80319        0.13113        0.75786
C          0.89084        1.28376        1.15184
C          0.91466        2.45488        0.17009
C          0.48256        2.18104       -1.28175
N         -0.95362        2.14299       -1.53057
C         -1.35528        2.56002       -2.88758
C         -0.92452        1.68904       -4.07808
O         -1.77445        0.56263       -4.24829
C         -1.79374        1.10297       -0.93717
C         -1.39228       -0.38293       -0.99426
O         -0.77845       -0.75682       -2.22172
H          1.57132       -0.26238       -0.23448
H          1.69320       -0.69225        1.47106
H          2.85154        0.44429        0.76111
H         -0.12862        0.92288        1.30084
H          1.21819        1.65236        2.13212
H          0.30560        3.27146        0.57892
H          1.94289        2.84121        0.14182
H          0.88981        3.03034       -1.84933
H          0.99452        1.30679       -1.68874
H         -2.44505        2.68830       -2.91639
H         -0.94884        3.56652       -3.05117
H         -1.00550        2.28047       -4.99604
H          0.11496        1.35548       -3.99979
H         -1.54164       -0.06893       -3.53282
H         -1.96196        1.36090        0.11569
H         -2.79954        1.17619       -1.37256
H         -0.72684       -0.66126       -0.17567
H         -2.29350       -0.99559       -0.88516
H          0.15695       -0.50373       -2.14828
