24

C          0.77403       -0.17477       -0.12254
C          0.34809        0.97064        0.79048
N          1.08870        2.21289        0.62110
C          0.54221        3.39936        1.28298
C          0.42224        3.37339        2.81596
O          1.65977        3.65312        3.45575
C          2.50752        2.22219        0.27460
C          3.53652        2.03650        1.39961
O          3.24365        0.92654        2.23971
H          0.73640        0.12225       -1.17585
H          0.09857       -1.02677        0.00757
H          1.78535       -0.52298        0.11020
H         -0.71149        1.16629        0.58224
H          0.39161        0.61949        1.82629
H          1.11132        4.28748        0.98160
H         -0.46849        3.54956        0.88099
H         -0.27322        4.16138        3.12434
H          0.02232        2.42865        3.19571
H          2.13235        2.81112        3.57061
H          2.70068        1.46383       -0.49179
H          2.74031        3.16809       -0.23256
H          4.52625        1.86665        0.96374
H          3.61099        2.93325        2.01812
H          2.28361        0.91984        2.35607
