38

C          0.99130       -0.09724        0.11835
C          0.54318        0.27148       -1.25492
C          0.49272        1.51605       -1.74722
C         -0.02759        1.54763       -3.14452
C          0.10356        0.07823       -3.57789
C         -0.89347       -0.31291       -4.68009
C         -0.71432        0.45597       -5.99983
C          0.64776        0.26817       -6.70351
C          0.90994       -1.19891       -7.05099
C          0.73593        1.11867       -7.98010
O          0.70576        2.50636       -7.67189
C          0.02641       -0.74969       -2.25438
C         -1.39948       -1.17921       -1.87377
C          0.92784       -1.98872       -2.35301
H          0.33143       -0.84952        0.55986
H          0.98780        0.77187        0.78464
H          2.00784       -0.50128        0.09034
H          0.77605        2.40879       -1.20481
H          0.58073        2.19823       -3.78060
H         -1.06276        1.90405       -3.15531
H          1.11884       -0.04980       -3.98018
H         -0.83384       -1.38999       -4.87016
H         -1.91659       -0.12327       -4.33147
H         -1.51365        0.14307       -6.68459
H         -0.88618        1.52039       -5.80350
H          1.43866        0.61632       -6.02916
H          0.11680       -1.60189       -7.68998
H          1.86068       -1.30851       -7.58370
H          0.97353       -1.81910       -6.15197
H          1.68188        0.92721       -8.49758
H         -0.07820        0.89317       -8.67734
H         -0.20982        2.74105       -7.44686
H         -1.80450       -1.89993       -2.59252
H         -1.42075       -1.66292       -0.89037
H         -2.08450       -0.32464       -1.83225
H          1.97214       -1.71411       -2.54237
H          0.90636       -2.57418       -1.42682
H          0.60356       -2.64589       -3.16748
