14

O          2.36574       -0.98714       -0.01285
C          1.20106       -0.27705       -0.00670
C          1.20355        1.11591       -0.00367
C         -0.01150        1.80477        0.00339
C         -1.21759        1.10031        0.00732
C         -1.19717       -0.29250        0.00381
O         -2.35262       -1.01754        0.00733
C          0.00646       -0.98783       -0.00330
H          3.11001       -0.36386       -0.01035
H          2.13271        1.67685       -0.00679
H         -0.01849        2.89180        0.00589
H         -2.15389        1.64923        0.01306
H         -3.10484       -0.40389        0.01190
H          0.01345       -2.07309       -0.00593
