45

C          0.45817       -0.79816       -1.19004
C          0.22733       -2.05756       -0.35269
O          0.42185       -2.02214        1.08655
C          1.73266       -2.04122        1.48913
C          2.60650       -3.55972        1.63194
C          4.39516       -3.69188        1.56764
C          5.45821       -2.29912        1.35574
C          4.69518       -0.66868        1.27440
C          2.66979       -0.52491        1.41096
O          1.91229        0.48160        2.08525
S          0.60859        1.29010        1.61004
O         -0.50446        0.40031        1.37158
O          0.40752        2.36897        2.55723
N          0.94975        2.03483        0.16013
C          2.09762        2.76126       -0.16145
O          1.92394        3.89970       -0.58868
N          3.37801        2.27960       -0.13672
C          3.75441        1.09252        0.47608
N          4.00284        1.20464        2.17127
C          3.95188       -0.20142        3.14758
O          4.36283       -0.03894        4.44185
C          4.95113       -1.21137        4.98944
C          3.68491       -1.79656        2.39573
C          3.55485       -1.87261        0.38094
O          3.79902       -2.80417       -0.61957
C          3.14210       -4.03091       -0.94335
N          3.57930       -0.33486       -0.45567
H         -0.34625       -0.07073       -1.06124
H          0.48974       -1.04194       -2.25876
H          1.38543       -0.28990       -0.96535
H         -0.82041       -2.33488       -0.50574
H          0.79676       -2.86366       -0.80247
H          2.02780       -4.48014        1.72160
H          4.84846       -4.67810        1.67396
H          6.53940       -2.40048        1.34273
H          5.49266        0.10030        1.30010
H          0.12982        2.61121       -0.03250
H          4.00711        3.05285        0.01352
H          4.17312       -1.91933        5.29146
H          5.66215       -1.68515        4.30136
H          5.51617       -0.93182        5.88331
H          3.73319       -2.57412        3.17023
H          3.75522       -4.87825       -0.61515
H          2.13638       -4.16978       -0.55181
H          3.06024       -4.10819       -2.03000
