20

C          0.97351        0.03608        0.02548
N          0.42205       -0.69070       -1.19669
C          0.98213       -2.10480       -1.23451
C         -1.09720       -0.75284       -1.11528
C          0.85668        0.04899       -2.49815
C          0.45665        1.51505       -2.57644
O          1.09425        2.44634       -2.11328
O         -0.76764        1.69996       -3.10616
H          0.72077       -0.54976        0.91435
H          0.51111        1.02442        0.09044
H          2.05862        0.11964       -0.08253
H          0.67344       -2.62575       -0.32325
H          0.58322       -2.61178       -2.11796
H          2.07323       -2.04438       -1.28682
H         -1.48896        0.26059       -0.99692
H         -1.47490       -1.21133       -2.03379
H         -1.36974       -1.36000       -0.24672
H          1.94908       -0.01751       -2.56167
H          0.43434       -0.50030       -3.34753
H         -0.91803        2.67383       -3.09566
