34

N          1.02753       -0.36647       -0.17741
N          2.16080       -0.27399       -0.11549
N          3.39435       -0.15111       -0.02162
C          4.18387       -1.38059       -0.20590
C          3.94034       -2.35862        0.93980
O          3.37528       -3.43629        0.75789
N          4.38866       -2.05523        2.19534
C          4.79247       -0.72899        2.70643
C          3.69631       -0.19069        3.64200
O          3.53190       -1.06162        4.76007
C          6.18278       -0.79990        3.39295
O          7.10891       -1.42637        2.49491
C          6.79410        0.53560        3.78439
C          7.73587        0.57109        4.82807
C          8.28465        1.78171        5.26305
C          7.89331        2.97548        4.64797
N          8.41423        4.25727        5.13447
O          9.26776        4.23071        6.03223
O          7.96042        5.29329        4.62640
C          6.99728        2.95936        3.57626
C          6.47016        1.74261        3.13873
H          3.93142       -1.86453       -1.15634
H          5.25095       -1.13494       -0.23859
H          4.15594       -2.75942        2.88863
H          4.87412       -0.06515        1.84820
H          3.94101        0.80453        4.02315
H          2.73727       -0.11450        3.11691
H          2.72139       -1.58037        4.60885
H          6.11468       -1.44131        4.28115
H          6.70496       -2.27969        2.25307
H          8.04508       -0.35425        5.31292
H          9.00210        1.77504        6.08071
H          6.69592        3.87638        3.07381
H          5.79260        1.77048        2.28946
