12

C         -1.97007        0.64426       -0.00297
N         -2.05635       -0.72141       -0.00239
C         -0.90846       -1.45605       -0.00080
C          0.28523       -0.73106       -0.00007
N          1.57378       -1.12320        0.00094
N          2.22047        0.05598        0.00076
N          1.50837        1.18940        0.00025
C          0.26103        0.71446       -0.00056
N         -0.87834        1.44566       -0.00193
H         -2.92627        1.16404       -0.00468
H         -0.98029       -2.53365       -0.00043
H          3.23789        0.08715        0.00088
