34

C          1.08989       -0.11088       -0.31449
C          0.57364       -1.24884        0.55396
C          0.92291       -1.11026        2.04464
C          0.48598        0.20551        2.74473
C         -1.01857        0.43293        2.55523
C          0.97504        0.36718        4.25412
C         -0.07970        0.09668        5.38337
C         -1.14551        1.14223        5.70266
C          2.09393       -0.64252        4.57456
O          1.81880       -1.83079        4.74468
N          3.38981       -0.22058        4.67774
C          3.62764        1.01376        4.88859
O          4.88805        1.41823        5.09320
N          2.71081        1.99659        4.92111
C          1.47374        1.79923        4.40107
O          0.82528        2.78369        4.04439
H          0.58372        0.83191       -0.08717
H          0.90791       -0.33270       -1.37106
H          2.16637        0.03237       -0.17863
H         -0.50837       -1.35285        0.42093
H          1.01311       -2.18587        0.18961
H          0.48150       -1.96590        2.56951
H          2.01310       -1.20894        2.11596
H          0.97945        1.00430        2.17383
H         -1.60926       -0.32983        3.07197
H         -1.30970        1.42498        2.90873
H         -1.30655        0.40621        1.50051
H         -0.58254       -0.85951        5.18837
H          0.46644       -0.05206        6.32751
H         -1.90088        1.23033        4.92191
H         -1.67844        0.84460        6.61321
H         -0.71968        2.12895        5.89910
H          4.96816        2.35923        5.29580
H          2.98980        2.96464        4.96467
