21

F          0.89682       -1.14081        1.20485
C          1.68010       -0.44478        0.35327
F          0.97521       -0.28115       -0.77548
F          1.84867        0.78326        0.88901
C          3.00157       -1.13438        0.13021
F          3.61338       -1.22070        1.36411
C          2.84052       -2.53861       -0.41268
F          4.03881       -3.18049       -0.27685
F          1.96772       -3.24282        0.35093
C          2.43957       -2.61459       -1.88283
F          1.19156       -2.11984       -2.05532
F          2.37767       -3.91350       -2.28113
C          3.43741       -1.85172       -2.73589
F          3.07491       -1.90265       -4.04538
F          4.65864       -2.44294       -2.66232
C          3.53035       -0.40944       -2.27045
F          2.35504        0.23037       -2.47413
F          4.44823        0.26516       -3.01374
C          3.91429       -0.35606       -0.79412
F          4.01789        0.93203       -0.38055
F          5.17212       -0.87610       -0.67561
