39

C          1.01584       -0.20890        0.10989
C          0.40300        0.97259       -0.03790
C         -1.03582        1.11937       -0.33555
O         -1.46368        2.06160       -0.98163
O         -1.75643        0.12154        0.22794
C         -3.17270        0.09923       -0.03655
C         -3.97777        0.60540        1.17731
C         -3.74881        2.11053        1.47093
C         -4.13734        3.13272        0.39246
C         -5.61689        3.47743        0.32560
C         -5.47909        0.27750        1.05168
C         -5.86098       -1.20676        1.13307
C         -5.47246       -1.93703        2.42157
C         -5.99578       -1.32092        3.72124
C         -7.51247       -1.22312        3.78463
H          0.47781       -1.14877        0.03358
H          2.08545       -0.25562        0.28674
H          0.96034        1.90209       -0.01297
H         -3.42633        0.63655       -0.95653
H         -3.40705       -0.95295       -0.22506
H         -3.58563        0.08775        2.06250
H         -4.26075        2.37047        2.40685
H         -2.68081        2.24809        1.68440
H         -3.59929        4.06217        0.61971
H         -3.80125        2.82188       -0.59938
H         -6.04187        3.62819        1.32187
H         -5.75515        4.40226       -0.24496
H         -6.19078        2.70451       -0.18906
H         -6.03747        0.82366        1.82138
H         -5.84304        0.63954        0.08472
H         -6.94689       -1.28409        0.99552
H         -5.42447       -1.74507        0.28422
H         -5.84082       -2.96868        2.35062
H         -4.38083       -2.01398        2.48321
H         -5.65436       -1.94394        4.55709
H         -5.55803       -0.32887        3.87620
H         -7.97823       -2.19773        3.60766
H         -7.82510       -0.87379        4.77410
H         -7.90022       -0.51480        3.04671
