17

N          1.02953        0.04177       -0.14972
C          0.36926       -1.04905       -0.57297
N         -0.74592       -0.98358       -1.24960
C         -1.20388       -2.26153       -1.54966
C         -2.37141       -2.60121       -2.27545
O         -3.18987       -1.61100       -2.76715
C         -2.70043       -3.94320       -2.49611
C         -1.88097       -4.95429       -2.00241
C         -0.72193       -4.65158       -1.28160
C         -0.40277       -3.29952       -1.06724
S          0.93998       -2.62570       -0.22628
H          0.49135        0.90113       -0.16416
H          1.64541       -0.05410        0.64712
H         -3.92045       -2.01538       -3.25934
H         -3.59433       -4.21276       -3.05113
H         -2.14365       -5.99564       -2.17835
H         -0.08408       -5.44237       -0.89778
