33

C          0.84977       -0.46997        0.50490
C          0.47457        0.99281        0.32542
C          1.02533        1.60619       -0.96428
C          0.45695        1.02894       -2.26635
C         -1.03478        1.29220       -2.50385
C         -1.39857        2.75703       -2.75605
N         -0.95985        3.16903       -4.08246
C          0.06809        3.89325       -4.29360
O          0.91536        4.37619       -3.37243
C          0.49997        4.33642       -5.61254
C         -0.09356        5.43820       -6.22245
C          0.36852        5.83922       -7.47313
C          1.39760        5.11448       -8.06021
N          1.98364        4.03565       -7.49107
C          1.51896        3.66806       -6.27160
H          0.37517       -1.10254       -0.25041
H          0.52289       -0.82359        1.48806
H          1.93408       -0.60722        0.44125
H         -0.61340        1.10432        0.37527
H          0.88203        1.55731        1.17318
H          0.85399        2.68598       -0.92784
H          2.11474        1.47501       -0.97775
H          1.03358        1.43114       -3.10740
H          0.62572       -0.05389       -2.28598
H         -1.35337        0.69563       -3.36856
H         -1.61397        0.92327       -1.65033
H         -2.49228        2.84002       -2.74258
H         -1.05528        3.41044       -1.94991
H          0.66545        4.11220       -2.47883
H         -0.89545        5.97804       -5.72850
H         -0.06043        6.69728       -7.97865
H          1.79042        5.39231       -9.03463
H          2.00288        2.80106       -5.83238
