31

C          2.51387        0.04282       -0.13656
C          1.02167       -0.02060        0.00112
C          0.39072       -1.25445        0.19313
C         -0.99290       -1.32072        0.34526
C         -1.75863       -0.15571        0.30531
C         -1.15397        1.08694        0.07923
C         -1.97357        2.35774        0.02350
C         -2.75962        2.63991       -1.29115
C         -3.87406        1.60172       -1.52045
C         -3.43665        4.02081       -1.13605
C         -1.83346        2.65268       -2.52667
O         -0.81241        3.63777       -2.41727
C          0.24065        1.14080       -0.07222
H          2.99184       -0.47142        0.70423
H          2.82802       -0.42959       -1.07221
H          2.87382        1.07693       -0.13593
H          0.97700       -2.16927        0.23281
H         -1.47575       -2.28171        0.50175
H         -2.83326       -0.22768        0.45007
H         -2.67235        2.34137        0.87187
H         -1.30659        3.20624        0.23257
H         -4.49979        1.48848       -0.62794
H         -4.52997        1.90395       -2.34519
H         -3.46878        0.61923       -1.78138
H         -2.70573        4.81157       -0.93531
H         -3.98494        4.29671       -2.04397
H         -4.15124        4.01708       -0.30482
H         -1.34622        1.68200       -2.66590
H         -2.40195        2.85411       -3.44265
H         -1.21325        4.49766       -2.62912
H          0.72250        2.10258       -0.24547
