29

C          0.84637       -0.11549       -0.16972
C          0.44925       -0.46841        1.26037
C          0.94947        0.51024        2.36405
C          0.45048        1.97612        2.07998
C         -1.05466        2.17886        1.93676
C          0.36357        0.08382        3.75035
C          0.69441       -1.30259        4.28558
C          2.51133        0.61301        2.39576
C          3.33245       -0.66997        2.41561
H          0.42759        0.84412       -0.48416
H          0.46403       -0.87771       -0.85706
H          1.93232       -0.07894       -0.29190
H         -0.64442       -0.54350        1.30280
H          0.81264       -1.48191        1.45982
H          0.80088        2.63334        2.88736
H          0.92459        2.35743        1.16667
H         -1.58842        1.94591        2.86179
H         -1.26169        3.22884        1.70263
H         -1.47420        1.57648        1.12723
H          0.65968        0.81858        4.51006
H         -0.73088        0.12995        3.69719
H          1.71540       -1.35583        4.66577
H          0.03985       -1.52911        5.13506
H          0.54230       -2.08856        3.54305
H          2.84055        1.17431        1.51052
H          2.81371        1.22544        3.25540
H          3.01713       -1.38572        1.65394
H          4.38284       -0.42897        2.21536
H          3.31233       -1.15812        3.38988
