17

C         -0.07220        2.16615        0.07755
C          0.32115        0.71192        0.02207
C          1.67123        0.30779       -0.03395
N          2.73325        1.22346        0.06970
C          1.97936       -1.06120        0.02752
C          0.97838       -2.03101        0.01573
C         -0.35310       -1.64028       -0.02161
C         -0.68066       -0.28229       -0.01337
Cl        -2.36497        0.12022       -0.04637
H         -0.45893        2.48682       -0.89503
H         -0.83605        2.33106        0.84498
H          0.75786        2.82424        0.34637
H          3.62350        0.85134       -0.24638
H          2.54287        2.12605       -0.35257
H          3.01661       -1.38400        0.07595
H          1.24004       -3.08531        0.04039
H         -1.13474       -2.39568       -0.03941
