40

C          1.04837       -0.14128       -0.35683
C          0.79509       -0.89543        0.93937
C          1.31082       -0.15706        2.17757
C          0.67581        1.21540        2.43345
C         -0.84810        1.20853        2.59855
C         -1.36097        0.35030        3.75832
C         -0.98714        0.87580        5.14939
C         -1.71637        2.15897        5.57502
C         -3.24948        2.06889        5.63605
C         -3.75458        1.16612        6.73661
C         -4.14796        1.70381        7.96965
C         -4.55103        0.86803        9.01455
C         -4.54902       -0.51079        8.82764
O         -4.89724       -1.36492        9.83172
C         -4.18467       -1.06136        7.60813
C         -3.80298       -0.22468        6.55968
H          0.48055        0.79296       -0.39557
H          0.74247       -0.75013       -1.21336
H          2.11119        0.09463       -0.47049
H         -0.27478       -1.10996        1.03633
H          1.29921       -1.86761        0.88116
H          1.16752       -0.79898        3.05462
H          2.39551       -0.02252        2.08259
H          1.14030        1.65180        3.32506
H          0.93287        1.89263        1.61067
H         -1.19369        2.24123        2.72166
H         -1.31101        0.85322        1.67056
H         -2.44814        0.26200        3.66698
H         -0.98358       -0.67317        3.65714
H         -1.17734        0.08780        5.88594
H          0.09253        1.05451        5.20231
H         -1.33499        2.45649        6.56063
H         -1.44286        2.96870        4.88850
H         -3.64400        3.08031        5.80269
H         -3.67246        1.75643        4.67528
H         -4.13676        2.78040        8.12675
H         -4.85119        1.30755        9.95937
H         -5.07062       -0.84336       10.63148
H         -4.18501       -2.13943        7.47353
H         -3.51765       -0.67210        5.61178
