54

C          1.24368       -0.00118       -0.04988
N          0.39413        0.92676        0.66290
C         -0.37319        1.95107        0.17885
O         -0.78257        2.81840        0.94645
C         -0.73403        2.04855       -1.25646
C         -0.45196        3.30083       -1.83563
C         -0.84058        3.56942       -3.13953
C         -0.57094        4.84109       -3.74625
N         -0.36906        5.86036       -4.25778
C         -1.58636        2.61597       -3.82632
C         -1.96879        1.39322       -3.22196
C         -3.09568        0.69882       -3.93859
C         -1.44551        1.03723       -1.96070
N         -1.61279       -0.20980       -1.30479
C         -1.77507       -1.52554       -1.69062
O         -1.79239       -2.36447       -0.78770
C         -1.79377       -1.91438       -3.06990
C         -0.91759       -1.61016       -4.09878
C         -1.57287       -2.04428       -5.27215
C         -1.34308       -1.55302       -6.66914
N         -1.42956       -2.60611       -7.65567
N         -0.34000       -3.05986       -8.30093
N         -0.78353       -4.06251       -9.04595
C         -2.14610       -4.13032       -8.85147
C         -2.97409       -5.24154       -9.40930
F         -3.14282       -5.13558      -10.75604
F         -2.40368       -6.45908       -9.18756
F         -4.22367       -5.30634       -8.87015
N         -2.60308       -3.12326       -8.07874
N         -2.62043       -2.81518       -4.96997
N         -2.74638       -2.76570       -3.61535
C         -3.93220       -3.27405       -2.99562
N         -4.50704       -2.48760       -2.03287
C         -5.68908       -2.89385       -1.51901
C         -6.33544       -4.05408       -1.90526
C         -5.72777       -4.85712       -2.86593
C         -4.50883       -4.47150       -3.43195
Cl        -3.77066       -5.58801       -4.52501
H          1.19283        0.13835       -1.12985
H          0.93760       -1.01413        0.22336
H          2.27105        0.15965        0.28709
H          0.55626        1.01606        1.66156
H          0.04959        4.06782       -1.24500
H         -1.96205        2.85865       -4.82271
H         -3.88759        1.42243       -4.16343
H         -2.75213        0.30531       -4.89585
H         -3.57187       -0.07440       -3.33941
H         -1.42830       -0.20288       -0.30404
H         -0.03680       -0.98721       -4.02266
H         -2.10565       -0.80769       -6.92798
H         -0.36417       -1.07082       -6.75997
H         -6.12159       -2.23785       -0.76777
H         -7.28469       -4.33605       -1.46168
H         -6.20273       -5.78927       -3.16349
