22

C          2.56915        1.20653       -0.16400
C          1.30719        0.38618       -0.05723
C          1.32733       -1.01921        0.02906
N          2.58548       -1.75924        0.12504
O          2.71678       -2.73698       -0.62020
O          3.40482       -1.37566        0.96834
C          0.14663       -1.78096        0.05067
C         -1.09837       -1.13326        0.03573
N         -2.31229       -1.95944        0.03466
O         -3.40246       -1.36628       -0.00169
O         -2.17816       -3.18675        0.06407
C         -1.17022        0.26726        0.03104
O         -2.34730        0.96342        0.09997
C          0.03141        1.00046       -0.02046
N         -0.05826        2.45503       -0.03259
O         -0.55758        2.98230       -1.03459
O          0.43536        3.05091        0.93404
H          2.42418        2.06883       -0.82342
H          2.87945        1.55647        0.82509
H          3.38977        0.64028       -0.61492
H          0.20860       -2.86983        0.08770
H         -3.12808        0.36836        0.05511
