22

Cl        -2.45147       -0.15169       -0.87103
C         -0.77716       -0.10443       -0.49792
C          0.28470       -1.50327       -0.84634
C          2.07430       -1.38916       -0.61926
C          2.88454        0.10849       -0.01149
C          1.93290        1.58082        0.37494
C          0.07323        1.46578        0.07911
C         -0.54847        2.61725       -0.06921
C         -0.69905        2.05702        1.51822
Cl        -1.60411        2.98512        2.65011
C          0.00177        0.64958        1.99363
C          0.87130       -0.15419        0.75866
C          1.07621        0.49428       -1.12935
C          0.26151        1.99108       -1.41369
Cl         0.28463        2.76791       -2.93632
H         -0.15128       -2.42009       -1.23507
H          2.68914       -2.25528       -0.86294
H          3.96832        0.12982        0.08227
H          2.40449        2.52579        0.62686
H         -0.07056        0.25553        2.99769
H          1.28730       -1.07188        1.22671
H          1.60090        0.10357       -2.01279
