33

C          1.12785       -0.04132        0.01216
C          0.42633       -0.48165        1.29153
C          0.77943        0.38527        2.51044
C          0.65637        1.91518        2.37877
C         -0.71243        2.49173        2.07304
C          0.29521       -0.14733        3.87187
O          1.15182       -0.28220        4.75530
N         -1.03561       -0.43765        4.14621
C         -2.18863       -0.25514        3.26419
C         -2.87574       -1.55683        2.88248
C         -1.33747       -0.92583        5.49831
C         -0.96822       -2.39041        5.69360
H          0.74331        0.92233       -0.33589
H          0.95193       -0.77314       -0.78297
H          2.20879        0.04669        0.15799
H         -0.64191       -0.51570        1.08265
H          0.72012       -1.51718        1.50894
H          1.87159        0.24012        2.59359
H          1.01666        2.37956        3.30610
H          1.34445        2.25432        1.59402
H         -1.38992        2.37140        2.92251
H         -0.62784        3.56797        1.88780
H         -1.15572        2.03874        1.18235
H         -2.89822        0.40280        3.77980
H         -1.90942        0.26447        2.35655
H         -3.33555       -2.03458        3.75302
H         -3.67101       -1.36271        2.15548
H         -2.16795       -2.26398        2.43940
H         -0.79327       -0.31291        6.22646
H         -2.40423       -0.78126        5.70437
H          0.11027       -2.54843        5.59639
H         -1.26805       -2.72396        6.69192
H         -1.46240       -3.03083        4.95730
