28

C          1.31563        0.41821       -0.09921
S          0.20451        1.38406        0.93982
C          0.94420        1.20335        2.52326
N          1.29974        2.28715        3.13299
N          1.78713        2.24019        4.44177
C          1.86722        1.10937        5.07946
C          2.30967        1.13667        6.56534
C          3.66156        1.87072        6.65421
C          1.25107        1.93844        7.34867
C          2.47298       -0.22207        7.25778
C          1.49203       -0.19641        4.39039
O          1.56689       -1.28114        4.94891
N          1.03974       -0.05124        3.08801
N          0.65582       -1.25017        2.39268
H          1.27146        0.80796       -1.12033
H          0.99336       -0.62559       -0.13750
H          2.34972        0.47153        0.24899
H          3.59412        2.89879        6.28113
H          4.01875        1.92353        7.68937
H          4.42462        1.35549        6.05976
H          0.26335        1.47086        7.26177
H          1.50305        1.99879        8.41376
H          1.15903        2.96471        6.97525
H          1.52391       -0.76704        7.30781
H          3.21199       -0.84843        6.74673
H          2.81685       -0.09997        8.29219
H         -0.36283       -1.23164        2.31111
H          0.86418       -2.03285        3.02588
