8

Cl         1.07800       -0.12839       -0.06429
C          2.84751        0.07834        0.00167
C          3.33854        1.07343       -1.03045
Br         2.90050        2.90190       -0.51823
H          3.11327        0.37417        1.02113
H          3.28321       -0.90590       -0.19400
H          4.42962        1.04720       -1.10208
H          2.91233        0.90222       -2.02282
