18

C          1.09306        0.11158       -0.01577
C          0.34170        1.32502        0.44037
O         -0.79633        1.59738        0.08149
O          1.07798        2.01629        1.34931
C          0.45940        3.20484        1.85892
C          0.83571        4.37549        1.01945
C          0.61089        5.73052        1.16540
C          1.18167        6.35864        0.03257
C          1.72143        5.35181       -0.73141
O          1.52229        4.14697       -0.13992
H          0.76577       -0.15883       -1.02348
H          0.89984       -0.71498        0.67195
H          2.16582        0.31995       -0.05868
H         -0.62895        3.10268        1.93602
H          0.84100        3.35080        2.87525
H          0.08908        6.20434        1.98526
H          1.19340        7.41343       -0.20254
H          2.24957        5.32701       -1.67425
