18

N          0.93731       -0.09657       -0.20817
C          0.40877        1.04340       -0.82732
C          0.75967        1.27510       -2.16827
C          0.18607        2.31553       -2.91097
Cl         0.72147        2.53160       -4.53939
C         -0.78923        3.12606       -2.32958
Cl        -1.54050        4.42975       -3.17545
C         -1.19509        2.87933       -1.01932
C         -0.61653        1.82930       -0.28400
S         -1.23436        1.62056        1.36360
O         -1.07320        2.88534        2.04630
O         -2.52155        0.96800        1.27227
O         -0.26551        0.56449        2.11100
H          0.91583       -0.06868        0.81471
H          1.85116       -0.38501       -0.54901
H          1.49606        0.63207       -2.64761
H         -1.96883        3.49834       -0.56650
H         -0.84334        0.00121        2.67186
