18

C          0.98600       -0.06430       -0.05169
O          0.48877       -1.03580       -0.97550
C          0.98526       -0.89384       -2.23657
O          1.79713       -0.05146       -2.58651
C          0.46442       -1.97336       -3.11944
N          1.35151       -2.43809       -4.04894
C          0.88086       -3.41034       -4.86036
Cl         2.02990       -3.96885       -6.00620
C         -0.41254       -3.90599       -4.75308
Cl        -1.05073       -5.14808       -5.75189
N         -1.29595       -3.44475       -3.83127
C         -0.84982       -2.46744       -3.00953
N         -1.81931       -1.95642       -2.15130
H          0.54084       -0.26938        0.92580
H          0.69214        0.94330       -0.36196
H          2.07387       -0.14234        0.04009
H         -2.65779       -2.52916       -2.21603
H         -1.48369       -1.85089       -1.19625
