17

C          0.95425        0.01425       -0.00405
C          0.45676       -0.08884       -1.41913
C          0.23557       -1.29202       -1.97988
C         -0.26414       -1.38078       -3.37387
O         -0.45164       -2.47518       -3.89282
N         -0.46296       -0.14114       -3.92880
N         -0.94662        0.10534       -5.23270
C         -0.96551        1.41179       -5.29382
N         -0.53654        2.00722       -4.15317
C         -0.20754        1.04274       -3.25629
N          0.23878        1.12041       -2.05268
H          0.78655       -0.91131        0.55700
H          0.43522        0.81789        0.52941
H          2.02702        0.23221        0.00332
H          0.40833       -2.23040       -1.46984
H         -1.27993        2.04288       -6.13731
H         -0.47488        2.99203       -3.96235
