48

C         -0.64308       -1.21349       -0.84547
C         -0.84386        0.28695       -1.02377
C         -0.23644        0.80331       -2.33390
N          1.21657        0.63447       -2.31389
C          1.91236        1.77647       -1.72754
C          3.40159        1.48490       -1.44741
C          3.68194        0.99417       -0.01191
S          3.15001       -0.69259        0.44413
C          1.98934       -0.32216        1.78577
C          4.04585        0.62306       -2.54925
C          3.23875        0.74966       -3.85319
C          3.94897        0.06270       -4.99080
C          4.92816        0.63844       -5.80614
C          5.62398       -0.14404       -6.73821
C          5.39336       -1.52594       -6.86845
C          4.38985       -2.07156       -6.06378
N          3.91325       -3.35362       -5.89326
C          2.87379       -3.35880       -4.98155
C          2.68496       -2.06563       -4.55049
C          3.66931       -1.28888       -5.18739
C          1.74700       -1.43599       -3.57136
C          1.79607        0.14925       -3.59380
H         -1.09888       -1.76729       -1.67191
H         -1.09786       -1.55237        0.08949
H          0.41651       -1.47830       -0.80873
H         -1.91792        0.50275       -1.01661
H         -0.41619        0.81935       -0.16674
H         -0.69820        0.25128       -3.16131
H         -0.50815        1.85681       -2.48156
H          1.43368        2.09589       -0.79434
H          1.83648        2.63865       -2.40550
H          3.89887        2.46452       -1.50989
H          4.76551        1.01186        0.15028
H          3.25865        1.71396        0.69673
H          2.28903        0.56150        2.35405
H          0.98370       -0.17410        1.38985
H          1.95876       -1.17229        2.47364
H          5.08725        0.93431       -2.69675
H          4.09589       -0.43123       -2.25116
H          3.13452        1.80977       -4.12233
H          5.16421        1.69515       -5.70984
H          6.38313        0.32557       -7.36087
H          5.96859       -2.12904       -7.56061
H          4.28822       -4.17093       -6.34978
H          2.38344       -4.28573       -4.71460
H          2.00845       -1.80627       -2.57337
H          0.72143       -1.76454       -3.78235
H          1.18075        0.49001       -4.44082
