23

C          1.19910        0.32944       -0.52108
C          0.37174       -0.71230       -0.72292
C         -0.91899       -0.80999        0.03019
C          0.91403       -1.84670       -1.54663
O          2.12466       -1.99299       -1.67910
N          0.09689       -2.83354       -2.02351
C         -1.25617       -2.85248       -2.38015
C         -1.95306       -1.71942       -2.79930
C         -3.31406       -1.80717       -3.11027
C         -3.98195       -3.03109       -3.01568
Cl        -5.67195       -3.05800       -3.36817
C         -3.27385       -4.17745       -2.64417
Cl        -4.02471       -5.72742       -2.50337
C         -1.90888       -4.08900       -2.35126
H          0.92796        1.14902        0.13713
H          2.18454        0.37834       -0.97807
H         -1.73158       -0.33144       -0.52362
H         -1.19044       -1.84659        0.24902
H         -0.85099       -0.29915        0.99750
H          0.62707       -3.67674       -2.21654
H         -1.45121       -0.76133       -2.91225
H         -3.84894       -0.91368       -3.42498
H         -1.36926       -4.98388       -2.04871
