96

C          2.76055       -1.94859       -1.85145
C          1.98977       -0.75488       -2.37510
N          2.85451        0.49930       -2.70155
C          3.61136        0.24393       -4.04526
C          2.68805       -0.04628       -5.23206
C          1.91314        1.70223       -2.87012
C          2.53675        3.01086       -3.34000
C          3.94121        0.77169       -1.56135
C          3.49172        0.68347       -0.05616
O          2.07952        0.64098        0.03393
C          1.37390        1.17900        1.08127
C          1.12689        0.41175        2.21808
C         -0.11848        0.53225        2.84136
C         -1.15653        1.24356        2.22445
C         -0.89196        1.99561        1.07571
O         -1.89089        2.53392        0.29339
C         -2.90827        1.57557       -0.10174
C         -3.45646        1.73356       -1.57801
N         -2.35091        1.70392       -2.71973
C         -1.63304        0.31027       -2.54375
C         -1.48883       -0.57555       -3.77396
C         -2.97843        1.79026       -4.15802
C         -3.27756        3.17925       -4.69950
C         -1.36573        2.87013       -2.53049
C         -1.97820        4.22432       -2.16330
C          0.44139        2.15259        0.69457
O          0.81004        3.25377       -0.06381
C          2.17892        3.64252        0.17307
C          2.45665        5.12840       -0.06130
N          2.51777        5.97197        1.22183
C          3.57259        5.42833        2.27138
C          4.90914        5.01610        1.66464
C          2.94888        7.44473        0.90586
C          2.47035        7.97674       -0.43661
C          1.15812        5.94723        1.98825
C         -0.05057        6.35919        1.17048
H          2.45965       -2.84549       -2.40100
H          2.50205       -2.12371       -0.80072
H          3.84361       -1.85936       -1.92784
H          1.44141       -1.02503       -3.27997
H          1.21866       -0.46129       -1.66095
H          4.21526        1.13583       -4.23816
H          4.28394       -0.60156       -3.87606
H          2.98647        0.55413       -6.09727
H          2.77546       -1.09805       -5.52534
H          1.62690        0.14942       -5.06522
H          1.11553        1.42209       -3.56330
H          1.43308        1.84986       -1.91232
H          3.52417        3.21822       -2.92675
H          2.60478        3.04802       -4.43121
H          1.88735        3.84434       -3.04068
H          4.77279        0.08284       -1.73861
H          4.34623        1.76810       -1.75718
H          3.90863       -0.22684        0.38627
H          3.91508        1.52642        0.50247
H          1.84494       -0.31382        2.58493
H         -0.32374       -0.02665        3.75921
H         -2.15641        1.20471        2.64778
H         -2.55615        0.54613        0.04010
H         -3.75967        1.70847        0.57612
H         -4.12752        0.89336       -1.80229
H         -4.03452        2.64919       -1.69991
H         -0.65377        0.51154       -2.11093
H         -2.19802       -0.27537       -1.81587
H         -0.81449       -0.14781       -4.52054
H         -1.05805       -1.53893       -3.47499
H         -2.45587       -0.80340       -4.23325
H         -2.22398        1.39689       -4.84497
H         -3.85902        1.14350       -4.17424
H         -2.38294        3.80981       -4.74875
H         -3.61517        3.09173       -5.73905
H         -4.05953        3.68851       -4.13720
H         -0.67168        2.56916       -1.75791
H         -0.77754        2.94412       -3.45075
H         -3.05798        4.29955       -2.28978
H         -1.75985        4.48803       -1.12459
H         -1.52797        5.01430       -2.77214
H          2.52467        3.33986        1.16330
H          2.77946        3.12283       -0.57095
H          3.43643        5.24136       -0.53947
H          1.70479        5.55143       -0.73136
H          3.70794        6.21719        3.01949
H          3.12284        4.56571        2.77495
H          5.41983        5.84221        1.16523
H          5.57088        4.65824        2.46183
H          4.81096        4.19094        0.95347
H          2.60220        8.06802        1.73538
H          4.04259        7.46527        0.89941
H          1.38905        7.92056       -0.56137
H          2.75949        9.02815       -0.53370
H          2.94136        7.44757       -1.27204
H          1.01600        4.92036        2.34366
H          1.27230        6.59582        2.86363
H         -0.15211        5.79728        0.24024
H         -0.95857        6.16371        1.75141
H         -0.04230        7.42668        0.94501
