30

C          1.04994        0.10608        0.06182
C          0.40176        1.42282       -0.35181
C          0.92061        1.95172       -1.68331
O         -1.04403        1.37818       -0.33272
C         -1.72217        0.50545       -1.11707
O         -1.21683       -0.32752       -1.85720
C         -3.18952        0.71963       -1.02816
S         -3.82187        0.17096        0.51539
O         -3.24646        0.96955        1.58167
O         -5.26602        0.08634        0.38311
C         -3.23506       -1.49566        0.72165
C         -3.97020       -2.55728        0.18500
C         -3.53186       -3.86769        0.38932
C         -2.37296       -4.10633        1.12967
Cl        -1.83950       -5.72205        1.38285
C         -1.65092       -3.04603        1.67836
C         -2.08840       -1.73442        1.48538
H          0.88995       -0.68542       -0.67558
H          0.63266       -0.24607        1.00966
H          2.13086        0.22910        0.18490
H          0.66336        2.16177        0.41518
H          0.71745        1.25804       -2.50447
H          0.42778        2.89703       -1.93467
H          2.00095        2.12259       -1.64131
H         -3.43020        1.77766       -1.16128
H         -3.68902        0.15608       -1.82232
H         -4.88709       -2.38025       -0.37356
H         -4.10204       -4.69805       -0.02026
H         -0.75588       -3.23579        2.26574
H         -1.53757       -0.91395        1.94046
