19

C          1.19516        0.12473        0.00677
C          0.53079       -0.54333        1.21467
C         -0.90653       -0.00817        1.45490
N         -1.87908       -0.46255        0.45108
C         -1.84322       -1.92724        0.34390
C         -0.42306       -2.48228        0.10271
N          0.56684       -2.01975        1.09491
H          1.25465        1.20826        0.15770
H          0.64736       -0.04710       -0.92500
H          2.21769       -0.24499       -0.12787
H          1.13276       -0.28089        2.09377
H         -1.24624       -0.32680        2.44912
H         -0.89499        1.08764        1.46275
H         -2.81443       -0.16253        0.72110
H         -2.49333       -2.23626       -0.48177
H         -2.25633       -2.36805        1.25997
H         -0.08528       -2.21988       -0.90653
H         -0.45816       -3.57724        0.13611
H          0.29602       -2.40687        1.99886
