9

O          2.25605       -0.44398       -0.04257
C          1.09843       -0.07322       -0.02079
C          0.66674        1.31595       -0.01660
C         -0.65940        1.31932        0.01066
C         -1.09795       -0.06766        0.02323
O         -2.25739       -0.43255        0.04707
O         -0.00169       -0.85195        0.00366
H          1.34446        2.15047       -0.03309
H         -1.33298        2.15725        0.02203
