20

S          1.69734       -0.94876        1.05097
C          2.98857       -0.34235        0.34087
N          3.93350        0.13796       -0.16829
C          4.63216       -0.78923       -0.97618
C          4.23377       -0.95165       -2.31369
C          4.89387       -1.84556       -3.15084
C          5.97361       -2.57927       -2.66549
C          6.41762       -2.42053       -1.34381
C          7.51893       -3.15303       -0.87057
C          7.97804       -2.99399        0.43656
C          7.34429       -2.09753        1.28765
C          6.24685       -1.36369        0.83303
C          5.75421       -1.51043       -0.48312
H          3.39900       -0.37353       -2.70325
H          4.57076       -1.96808       -4.18142
H          6.47789       -3.27357       -3.33511
H          8.03395       -3.85559       -1.52267
H          8.83306       -3.56663        0.78634
H          7.70246       -1.96436        2.30523
H          5.77731       -0.66171        1.51939
