25

C          0.87629        0.07925       -0.11774
C          0.36190        1.43428        0.28514
O         -0.72556        1.84113       -0.13105
N          1.02677        2.18486        1.21143
C          2.32691        2.11081        1.73302
C          2.54707        2.70217        2.97861
C          3.81729        2.68271        3.56736
C          4.90423        2.06977        2.93449
N          6.16695        2.18228        3.53228
C          4.69678        1.59638        1.63206
S          6.05259        0.98045        0.67596
O          6.60358        2.07455       -0.09297
O          6.88019        0.16146        1.53715
O          5.40305       -0.01904       -0.41420
C          3.41598        1.58302        1.04717
H          0.12298       -0.40882       -0.74589
H          1.02414       -0.54158        0.77032
H          1.78676        0.14264       -0.70941
H          0.43053        2.91730        1.58245
H          1.73069        3.17221        3.52287
H          3.94804        3.15614        4.53844
H          6.14757        2.27176        4.54442
H          6.83340        1.45939        3.24655
H          5.98687       -0.00644       -1.20270
H          3.31785        1.24328        0.02402
