38

C          1.36816        0.33980        0.18553
O          0.86866        0.63082       -1.11609
C          1.35830        1.74742       -1.71047
O          2.21626        2.47391       -1.22052
N          0.87837        1.95996       -2.98064
C         -0.19122        1.31434       -3.62846
C         -0.21454        1.30791       -5.02642
C         -1.22813        0.62844       -5.71022
C         -2.24682       -0.00813       -5.00015
C         -2.25898        0.05754       -3.60770
O         -3.34395       -0.58746       -2.96615
C         -3.77937       -0.32574       -1.66543
O         -3.26271        0.46415       -0.88036
N         -4.95350       -0.94203       -1.31612
C         -5.70819       -1.90439       -1.99970
C         -7.07180       -1.97189       -1.69792
C         -7.89484       -2.88873       -2.35036
C         -7.35074       -3.77629       -3.27613
C         -5.97849       -3.75817       -3.54998
C         -5.39515       -4.75379       -4.50895
C         -5.16427       -2.80730       -2.91679
C         -1.23575        0.70672       -2.92592
H          1.00541       -0.65460        0.46310
H          0.97852        1.06461        0.90505
H          2.46144        0.32137        0.19359
H          1.43422        2.61816       -3.50862
H          0.57569        1.78805       -5.59793
H         -1.21772        0.58937       -6.79664
H         -3.03220       -0.53944       -5.53027
H         -5.35776       -0.52661       -0.48739
H         -7.51688       -1.28651       -0.98098
H         -8.96015       -2.90979       -2.13650
H         -8.00026       -4.49250       -3.77441
H         -5.65492       -5.77112       -4.19771
H         -5.77883       -4.57585       -5.51807
H         -4.30265       -4.68799       -4.54237
H         -4.09673       -2.82310       -3.11633
H         -1.26499        0.76753       -1.84669
