22

C          0.81717        0.29803       -0.52509
C          0.62864       -1.20422       -0.70981
O          1.16823       -1.93008        0.40584
C          2.48493       -2.27361        0.24076
C          2.79559       -3.43699       -0.46961
C          4.12845       -3.84895       -0.58705
Cl         4.44746       -5.31293       -1.44748
C          5.14978       -3.09103       -0.00002
Cl         6.81726       -3.52752       -0.12070
C          4.83418       -1.94512        0.73345
C          3.50248       -1.55471        0.87939
Cl         3.16564       -0.20014        1.89310
C         -0.86974       -1.46147       -0.83553
O         -1.49309       -1.51705       -1.88521
O         -1.52082       -1.54780        0.34172
H          0.53199        0.60458        0.48793
H          0.21661        0.87488       -1.23563
H          1.86513        0.57767       -0.66848
H          1.08000       -1.53732       -1.65413
H          1.99991       -4.03570       -0.90649
H          5.62318       -1.36774        1.20967
H         -2.46297       -1.65654        0.09705
