59

C          1.24066       -0.59087       -0.08164
C          1.00252       -0.40748        1.40950
C          1.36050        0.99642        1.90084
C          0.59669        2.11677        1.19270
C         -0.92525        1.98151        1.30353
C         -1.47453        2.06643        2.73659
C         -0.93403        3.21228        3.59180
C         -1.43444        4.55345        3.13525
O         -1.92328        5.34961        3.92470
O         -1.25307        4.68419        1.80429
C         -1.56940        5.78866        0.93936
C         -2.98204        6.33539        0.98205
C         -3.50073        6.90064        2.28885
O         -2.80606        8.02607        2.85355
C         -1.49270        8.18028        3.12328
O         -0.57454        7.39302        2.94094
C         -1.24765        9.53690        3.72087
C         -1.88954       10.65824        2.90412
C         -3.42476       10.72272        2.94299
C         -4.03469       10.60637        4.34346
C         -3.63720       11.75079        5.27746
C         -4.00047       13.13975        4.74892
C         -5.48809       13.29723        4.47321
H          0.60675        0.07155       -0.67938
H          1.00789       -1.61744       -0.37752
H          2.28535       -0.38613       -0.33486
H         -0.04313       -0.63748        1.64292
H          1.60500       -1.13689        1.96150
H          1.17829        1.04934        2.98098
H          2.43548        1.16539        1.76591
H          0.93006        3.08189        1.59217
H          0.87384        2.14652        0.13298
H         -1.39198        2.74178        0.66885
H         -1.26128        1.03950        0.85859
H         -2.56782        2.14610        2.67944
H         -1.25952        1.12508        3.25409
H         -1.29142        3.07020        4.61977
H          0.15761        3.24114        3.64636
H         -0.79310        6.55297        0.97064
H         -1.44671        5.36969       -0.06896
H         -3.05301        7.11988        0.21753
H         -3.66826        5.53520        0.67585
H         -4.49796        7.30148        2.06051
H         -3.71945        6.14789        3.04603
H         -1.55971        9.52420        4.76870
H         -0.16141        9.69409        3.72354
H         -1.48636       11.61240        3.26076
H         -1.57787       10.56237        1.85599
H         -3.74521       11.65113        2.45962
H         -3.85699        9.94382        2.30648
H         -5.12566       10.55975        4.25238
H         -3.75589        9.65394        4.80963
H         -4.12040       11.59409        6.24921
H         -2.55748       11.71648        5.46646
H         -3.69100       13.88805        5.48647
H         -3.43505       13.35979        3.83642
H         -6.07221       13.10203        5.37771
H         -5.70362       14.31451        4.13517
H         -5.83113       12.61456        3.68948
