19

O          0.91570       -0.01304       -0.05357
C          2.12772       -0.01387        0.05990
O          2.80800        0.81984        0.86907
C          2.99240       -0.92100       -0.72850
C          4.11528       -1.53392       -0.16013
C          4.88410       -2.41440       -0.93773
N          6.07015       -3.04757       -0.34581
O          6.45000       -2.62284        0.75338
O          6.61795       -3.95236       -0.98677
C          4.53860       -2.69583       -2.26655
C          3.40038       -2.08649       -2.81262
N          3.01947       -2.37354       -4.20253
O          3.64986       -3.25832       -4.79545
O          2.10173       -1.70564       -4.69493
C          2.62261       -1.20406       -2.05000
H          3.77650        0.84742        0.76076
H          4.36548       -1.35620        0.88503
H          5.14145       -3.38034       -2.86340
H          1.72788       -0.73846       -2.46621
