34

C          1.34248       -0.16367       -1.77258
O          0.92828       -1.40469       -1.18431
C          0.53637       -2.35962       -2.05454
O          0.62982       -2.32391       -3.26923
C          0.13440       -3.56880       -1.31068
C          0.87203       -4.72548       -1.62931
C          0.49982       -5.96199       -1.10122
S          1.39787       -7.42163       -1.53911
N          1.72764       -7.20140       -3.17010
O          2.66836       -7.38661       -0.85623
O          0.50485       -8.55442       -1.48112
C         -0.60945       -6.06254       -0.26661
C         -1.32635       -4.90784        0.06582
C         -0.96054       -3.63676       -0.42834
S         -2.10230       -2.32934        0.00084
C         -1.16103       -1.08311        0.96529
C         -0.43856       -1.49058        2.24933
C          0.83107       -2.31905        2.11565
O          1.84364       -1.60966        1.42000
H          1.03322        0.64419       -1.10200
H          0.88540        0.01645       -2.74983
H          2.43226       -0.15406       -1.84676
H          1.71739       -4.65593       -2.31231
H          2.73746       -7.17990       -3.32053
H          1.25094       -7.91765       -3.72031
H         -0.93399       -7.02912        0.11618
H         -2.20663       -5.01938        0.70022
H         -0.51877       -0.49936        0.31115
H         -1.93859       -0.37054        1.27092
H         -0.14849       -0.55020        2.74046
H         -1.13682       -1.99252        2.92698
H          1.22447       -2.53012        3.11531
H          0.66567       -3.28346        1.63575
H          1.59513       -1.58266        0.47778
