23

C          1.05541       -0.10069       -0.38233
C          0.22984       -1.15357        0.29278
O         -0.98244       -1.07680        0.43412
O          1.01669       -2.18449        0.69934
C          0.37046       -3.25954        1.40101
C          0.73745       -3.20474        2.88523
C          0.20717       -1.96377        3.62954
C         -1.31497       -1.99122        3.77944
C          0.85450       -1.86506        5.01315
H          0.74130        0.88376       -0.02483
H          0.92434       -0.17325       -1.46402
H          2.11448       -0.22116       -0.13600
H         -0.71252       -3.27908        1.24312
H          0.76359       -4.18880        0.97352
H          0.37436       -4.11489        3.37805
H          1.83258       -3.21249        2.96083
H          0.48589       -1.06059        3.07481
H         -1.63868       -2.84971        4.37774
H         -1.66812       -1.08183        4.27765
H         -1.81882       -2.04777        2.81117
H          1.94494       -1.80760        4.92950
H          0.51405       -0.96521        5.53661
H          0.60602       -2.73338        5.63256
