14

O          1.11655        0.32580       -0.32987
N          2.24524       -0.01968        0.04352
O          2.82629        0.41511        1.04676
C          2.94678       -1.01889       -0.76287
C          2.57409       -1.20921       -2.09876
C          3.25167       -2.16205       -2.85603
Cl         2.81569       -2.40636       -4.50200
C          4.28067       -2.91903       -2.29637
C          4.63675       -2.71741       -0.96308
Cl         5.90212       -3.65460       -0.27062
C          3.97873       -1.76770       -0.18492
H          1.77365       -0.62541       -2.54886
H          4.80200       -3.66168       -2.89571
H          4.26681       -1.62163        0.85421
