35

O          1.05465        0.03116       -0.07773
P          2.60300        0.03116       -0.07773
C          2.61221        1.16463       -1.76586
C          3.64696        1.10949       -2.72176
C          3.55193        1.83976       -3.91079
C          2.39653        2.55512       -4.20701
C          1.33317        2.55971       -3.30600
C          1.44519        1.88477       -2.08768
C          2.61504        1.29007        1.51062
C          1.47910        2.09426        1.73310
C          1.37364        2.86864        2.89129
C          2.40697        2.88065        3.82372
C          3.53136        2.08162        3.62472
C          3.61583        1.25558        2.50031
C          4.43300        0.03116       -0.07773
C          5.06472       -1.22283       -0.00253
C          6.45721       -1.31709        0.05585
C          7.23995       -0.16371        0.03739
C          6.63557        1.08764       -0.04363
C          5.24496        1.18629       -0.10028
H          4.53772        0.50972       -2.57423
H          4.37778        1.82814       -4.61944
H          2.31179        3.09000       -5.14934
H          0.40904        3.07115       -3.55856
H          0.58705        1.87768       -1.41945
H          0.64433        2.07553        1.03862
H          0.47132        3.44824        3.07289
H          2.32739        3.49350        4.71773
H          4.33360        2.08409        4.35757
H          4.47726        0.59889        2.42398
H          4.47114       -2.13463        0.02428
H          6.93472       -2.29188        0.12329
H          8.32336       -0.23950        0.09015
H          7.24348        1.98921       -0.05420
H          4.79015        2.17568       -0.14959
