36

C          1.10312        0.07426        0.08160
C          0.50024        1.40034        0.56374
C          0.92948        2.47649       -0.36883
N          1.21377        3.34091       -1.09323
C         -1.04903        1.36940        0.59519
C         -1.70845        0.19841        1.31650
C         -1.42037        0.16594        2.78679
O         -1.98514        0.81835        3.64676
O         -0.40742       -0.66378        3.09459
N          1.08407        1.69566        1.90432
N          0.64586        2.73807        2.44381
C          1.27213        3.13264        3.73216
C          0.87310        2.13785        4.83291
C          2.74832        3.15094        3.60657
N          3.90668        3.15558        3.55207
C          0.71835        4.52991        4.11486
C          1.16569        5.70691        3.24286
C          0.66589        5.60829        1.82886
O         -0.49081        5.73679        1.46752
O          1.65172        5.26879        0.98178
H          0.70116       -0.21437       -0.89678
H          0.91036       -0.74365        0.78236
H          2.19319        0.14711       -0.02086
H         -1.43266        2.30865        1.01720
H         -1.41622        1.34871       -0.44133
H         -2.79767        0.27614        1.21010
H         -1.43963       -0.76179        0.86459
H         -0.31081       -0.58954        4.06715
H          1.24152        1.12771        4.62209
H          1.28958        2.43340        5.80400
H         -0.21346        2.08434        4.94711
H         -0.38005        4.48908        4.11209
H          1.01643        4.76260        5.14627
H          0.77687        6.64397        3.65861
H          2.25613        5.81219        3.24482
H          1.24651        5.09023        0.09949
