32

C          0.93112        0.08757        0.07332
C          0.51545       -1.02167        0.99129
C          0.92303       -2.37159        0.63454
C          0.61283       -3.42920        1.41262
C          1.06795       -4.83634        1.04510
C          2.09091       -5.40122        2.04933
C          2.54243       -6.81161        1.67653
C          1.35374       -7.74706        1.48738
C          0.39485       -7.21161        0.42947
C         -0.09837       -5.80738        0.77718
N         -0.11690       -3.18128        2.55837
O         -0.43696       -4.27218        3.39406
C         -0.55794       -1.94570        2.98610
O         -1.20086       -1.77356        4.02024
C         -0.19516       -0.80495        2.11079
H          0.58210        1.06290        0.42992
H          0.51888       -0.06594       -0.92950
H          2.02284        0.13499       -0.00217
H          1.49825       -2.50074       -0.27850
H          1.60841       -4.76444        0.08806
H          2.96889       -4.74433        2.09246
H          1.67650       -5.43057        3.06247
H          3.20048       -7.20424        2.46000
H          3.13231       -6.77603        0.75246
H          0.82254       -7.86412        2.44020
H          1.70955       -8.74106        1.19460
H         -0.46219       -7.88790        0.33322
H          0.89767       -7.19323       -0.54518
H         -0.76039       -5.88518        1.64540
H         -0.71386       -5.42893       -0.04861
H         -0.92443       -3.82607        4.11783
H         -0.52427        0.17398        2.43348
