36

C          1.25985        0.06080        0.19566
C          0.61141        0.09480       -1.18695
C          1.15467       -1.01028       -2.09191
O          0.53034       -1.75479       -2.83091
O          2.50295       -1.08945       -2.07884
C         -0.90355        0.06733       -1.04710
C         -1.65445        1.22760       -1.27855
C         -3.05133        1.17781       -1.29616
C         -3.72492       -0.02883       -1.08050
N         -5.11576       -0.12168       -1.43708
C         -5.88474       -1.31079       -1.06290
C         -5.97753       -2.07415       -2.33805
C         -6.20002       -3.41809       -2.56755
C         -6.09767       -3.87993       -3.88470
C         -5.79950       -2.99953       -4.94323
C         -5.60837       -1.63834       -4.70375
C         -5.71187       -1.20862       -3.39543
C         -5.31879        0.09274       -2.82994
O         -5.07492        1.07455       -3.50489
C         -2.97654       -1.16081       -0.73207
C         -1.58150       -1.11217       -0.71628
H          1.07663       -0.89365        0.70183
H          0.86938        0.86235        0.83237
H          2.34474        0.19224        0.12636
H          0.89257        1.03290       -1.68432
H          2.69345       -1.80332       -2.72427
H         -1.16438        2.17078       -1.50926
H         -3.61032        2.07440       -1.55802
H         -5.46023       -1.86329       -0.22260
H         -6.88740       -0.97125       -0.77326
H         -6.39597       -4.10807       -1.75318
H         -6.21900       -4.94105       -4.09350
H         -5.68123       -3.39019       -5.95148
H         -5.31798       -0.95384       -5.49388
H         -3.43051       -2.13461       -0.58473
H         -1.03291       -2.03309       -0.52772
