107

C          1.38820       -0.09278        0.18002
C          0.83677        0.54140       -1.08850
C          0.93345       -0.36405       -2.34638
C          0.11782       -1.70263       -2.22244
C         -1.36121       -1.61981       -1.85818
O          0.40523       -2.70560       -3.21262
C         -0.03312       -2.50141       -4.55105
C         -1.49366       -2.79905       -4.78114
C         -2.29674       -1.89192       -5.48855
C         -3.65512       -2.14719       -5.68033
C         -4.22176       -3.31789       -5.18085
C         -3.42916       -4.23859       -4.49740
C         -2.07018       -3.98449       -4.30431
N          0.73560        0.46329       -3.58042
N          1.95016        1.10496       -4.04582
C         -0.49543        1.05092       -3.86108
O         -1.44412        1.01911       -3.07368
N         -0.68031        1.80371       -4.98401
C         -0.05817        1.91414       -6.23803
C         -0.37697        3.04211       -6.99302
C          0.28848        3.30148       -8.19457
C          1.27782        2.44197       -8.69543
N          1.98458        2.81737       -9.83898
C          2.73228        4.09621       -9.70150
C          4.17509        3.87373       -9.19734
N          4.92156        2.85328       -9.96022
C          5.68168        3.28831      -11.04264
C          7.05800        3.03884      -11.02422
C          7.86481        3.36875      -12.11515
C          7.30593        3.93533      -13.25849
O          8.16286        4.07385      -14.31082
C          7.62413        4.08167      -15.63244
C          7.30932        2.69721      -16.20523
C          6.17944        1.93124      -15.56083
O          6.30856        0.61179      -16.10589
C          7.73958        0.29375      -16.13967
C          7.95875       -0.40410      -17.50898
N          9.32590       -0.72338      -17.84202
C         10.14089       -1.65926      -17.28778
N         11.27006       -1.71030      -17.95649
C         11.08693       -0.78373      -18.94105
N          9.91147       -0.15183      -18.91271
C          7.90950       -0.64323      -14.93124
C          7.32151       -1.93194      -14.96531
C          7.40222       -2.81220      -13.88054
C          8.03938       -2.40900      -12.71954
F          8.09844       -3.24021      -11.67188
C          8.59606       -1.14735      -12.62799
C          8.52917       -0.28334      -13.72227
F          9.06950        0.92486      -13.54332
C          8.44427        1.68214      -16.15230
C          5.95396        4.26428      -13.25957
C          5.14850        3.92447      -12.16631
C          4.17616        1.59381      -10.18259
C          2.71687        1.81371      -10.64558
C          1.48692        1.25216       -7.99296
C          0.83292        0.99254       -6.77667
H          0.77417       -0.93434        0.51168
H          1.39763        0.64432        0.98985
H          2.41418       -0.44276        0.03089
H         -0.19603        0.85627       -0.90805
H          1.39995        1.46668       -1.26423
H          1.97862       -0.70158       -2.42182
H          0.55519       -2.17575       -1.33325
H         -1.98002       -1.24309       -2.67095
H         -1.74107       -2.62037       -1.62113
H         -1.52925       -0.99226       -0.97890
H          0.23710       -1.50979       -4.90401
H          0.53596       -3.20157       -5.17483
H         -1.87406       -0.96797       -5.87617
H         -4.27184       -1.42695       -6.21114
H         -5.28176       -3.51089       -5.32138
H         -3.87098       -5.15064       -4.10548
H         -1.46157       -4.70099       -3.75654
H          1.68419        1.98087       -4.50494
H          2.48881        1.40773       -3.23215
H         -1.52413        2.35417       -4.87506
H         -1.10825        3.76489       -6.64087
H          0.02887        4.20209       -8.74711
H          2.74106        4.58709      -10.67862
H          2.23493        4.80596       -9.03020
H          4.13136        3.52975       -8.15586
H          4.72054        4.82532       -9.18219
H          7.50520        2.56129      -10.15569
H          8.92588        3.13377      -12.08955
H          6.77259        4.76256      -15.73086
H          8.40935        4.52369      -16.25877
H          7.04733        2.83575      -17.26409
H          6.25840        1.83844      -14.47629
H          5.19540        2.33449      -15.81485
H          7.37790       -1.32586      -17.61812
H          7.57313        0.25039      -18.30433
H          9.88060       -2.26721      -16.43342
H         11.82630       -0.56766      -19.70161
H          6.75472       -2.26650      -15.83189
H          6.95110       -3.79896      -13.93047
H          9.07007       -0.82372      -11.70789
H          9.07884        1.81917      -17.03553
H          9.11817        1.85928      -15.31889
H          5.48011        4.74982      -14.10451
H          4.08856        4.13625      -12.23711
H          4.18122        1.04562       -9.23458
H          4.69437        0.94847      -10.90438
H          2.17656        0.85999      -10.67864
H          2.72871        2.17651      -11.68093
H          2.19744        0.50960       -8.33908
H          1.06496        0.06558       -6.26336
