29

C          0.75593       -0.21799        0.17552
C          0.92626       -1.57630       -0.48534
S          1.35513       -2.89473        0.68586
C          3.03016       -2.49882        1.05035
O          3.53236       -1.45673        0.64439
N          3.71104       -3.40431        1.86565
C          4.94386       -2.93617        2.48903
C          6.17559       -3.29415        1.66559
C          6.61340       -4.74872        1.81479
C          5.54277       -5.78347        1.47030
C          4.37220       -5.78772        2.45436
C          3.27299       -4.77987        2.11032
H          0.06239       -0.26013        1.02138
H          0.35138        0.49539       -0.55067
H          1.70625        0.19204        0.52848
H         -0.02724       -1.86073       -0.94347
H          1.66654       -1.53113       -1.29024
H          5.00343       -3.32251        3.51268
H          4.89725       -1.84433        2.58356
H          7.00837       -2.65940        1.99279
H          6.00448       -3.06836        0.60613
H          7.48119       -4.91337        1.16429
H          6.96428       -4.91701        2.84089
H          5.18885       -5.64256        0.44223
H          6.01917       -6.77128        1.50470
H          3.91584       -6.78588        2.44837
H          4.73376       -5.62931        3.47712
H          2.74876       -5.15025        1.22254
H          2.54662       -4.74774        2.93094
