40

C          0.84404        0.13088        0.12351
C          0.40883        0.98483       -1.06003
C          1.05091        0.57929       -2.39303
C          0.57252       -0.76299       -2.92621
C         -0.59478       -0.88416       -3.73117
C         -1.04830       -2.17092       -4.12097
C         -0.31101       -3.30780       -3.75237
O         -0.77274       -4.53006       -4.17551
C          0.84662       -3.18655       -2.98161
C          1.61084       -4.36965       -2.55859
O          1.27712       -5.49943       -2.89916
C          2.77668       -4.15110       -1.69746
C          3.10431       -2.89370       -1.37888
C          4.27795       -2.70330       -0.49497
O          4.98812       -3.57909       -0.03243
O          4.50263       -1.40617       -0.22224
O          2.42270       -1.77262       -1.81220
C          1.28700       -1.92952       -2.57564
C         -2.28578       -2.35516       -4.97595
C         -3.20097       -1.13793       -5.00936
C         -2.38405        0.11309       -5.26965
C         -1.39371        0.34461       -4.13020
H          0.47422       -0.89496        0.03608
H          0.44413        0.54461        1.05462
H          1.93473        0.10446        0.21106
H         -0.68399        0.96319       -1.13501
H          0.69153        2.02316       -0.84771
H          0.85684        1.36415       -3.13095
H          2.14387        0.58298       -2.29555
H         -0.16754       -5.22894       -3.83961
H          3.31718       -5.02431       -1.35339
H          5.28541       -1.41448        0.36670
H         -2.87369       -3.20608       -4.61139
H         -1.95840       -2.59001       -5.99686
H         -3.73505       -1.04131       -4.05580
H         -3.95817       -1.26759       -5.79086
H         -1.84429        0.01128       -6.21996
H         -3.04330        0.98292       -5.36765
H         -0.72387        1.14619       -4.45633
H         -1.94032        0.69654       -3.24701
