15

C          0.99702        0.02426        0.10666
C          0.22585        0.94394       -0.79041
O         -0.89310        0.70261       -1.21788
O          0.93792        2.07711       -1.02586
C          0.30631        3.08903       -1.83356
C          0.96649        3.16450       -3.20796
S          0.39938        1.85857       -4.34269
H          0.69655       -1.00819       -0.09274
H          0.79486        0.27544        1.15017
H          2.06856        0.10296       -0.09787
H         -0.78162        2.97003       -1.89634
H          0.48578        4.03545       -1.31090
H          0.73550        4.12446       -3.67940
H          2.05342        3.07607       -3.11466
H          0.54900        0.82877       -3.49678
