33

N          1.29960        0.17909        0.23895
C          0.28556        1.01237        0.64668
O         -0.87717        0.74920        0.40764
C          0.79131        2.29011        1.37439
O          2.01667        2.45180        1.35384
N         -0.12191        3.18783        1.98893
C         -1.51999        2.82830        2.28810
C         -1.69126        2.15737        3.65139
O         -1.24253        3.00005        4.70972
N          0.52877        4.24814        2.63357
C         -0.00969        5.34996        3.04926
C         -1.39177        5.84878        2.94851
C         -1.96186        6.27563        4.08385
C         -3.37800        6.27047        4.16199
C         -4.17954        5.19311        4.53537
C         -5.52950        5.58987        4.42688
C         -5.47950        6.90117        4.02892
N         -6.52222        7.83965        3.76311
O         -6.20263        9.00295        3.49104
O         -7.67943        7.40168        3.83251
O         -4.19975        7.33184        3.85887
H          1.08232       -0.60040       -0.36489
H          2.25915        0.49929        0.32996
H         -2.15298        3.70525        2.22248
H         -1.93156        2.17569        1.52505
H         -2.75228        1.95080        3.82571
H         -1.14368        1.21295        3.70878
H         -0.31005        3.21004        4.49695
H          0.67144        6.02701        3.59667
H         -1.93865        5.67439        2.03233
H         -1.40398        6.38849        5.00918
H         -3.80494        4.22104        4.83303
H         -6.41562        5.00058        4.61848
