44

C          0.82074        0.22868       -0.15735
C          0.15144       -0.88880       -0.94301
C          0.64932       -2.28035       -0.56691
C          0.50722       -2.66697        0.90244
N         -0.85427       -2.97848        1.31609
C         -1.40514       -4.06343        1.91514
O         -2.63427       -4.15889        1.93757
N         -0.65605       -5.10732        2.35172
C          0.66495       -5.13330        2.67477
C          1.60059       -5.97574        2.20899
C          1.36853       -7.21929        1.41640
N          2.88647       -5.45967        2.40743
C          4.08453       -6.28449        2.43650
N          2.76429       -4.37800        3.31552
C          3.73638       -3.35709        3.44461
C          4.66648       -3.07408        2.43717
C          5.62344       -2.07009        2.61830
C          5.66474       -1.34804        3.81020
C          4.73367       -1.60899        4.81165
C          3.76687       -2.59800        4.62267
C          1.39207       -4.09338        3.47423
O          0.85200       -3.18259        4.08107
H          0.47202        0.24755        0.87942
H          0.58062        1.19821       -0.60446
H          1.91014        0.11720       -0.15446
H         -0.93478       -0.82851       -0.82260
H          0.36326       -0.73546       -2.00857
H          0.14514       -3.02630       -1.19313
H          1.71707       -2.33531       -0.82082
H          1.14161       -3.53883        1.00562
H          0.88462       -1.88886        1.57094
H         -1.55981       -2.28786        1.09484
H         -1.16187       -5.98139        2.31927
H          1.82824       -7.14423        0.42708
H          1.79930       -8.08061        1.93847
H          0.30310       -7.42900        1.27793
H          3.98339       -7.10320        3.15380
H          4.25240       -6.71025        1.44003
H          4.98430       -5.71851        2.69036
H          4.63280       -3.60207        1.48855
H          6.33443       -1.84690        1.82692
H          6.41595       -0.57605        3.95661
H          4.75564       -1.04637        5.74148
H          3.04843       -2.78894        5.41764
