42

C          1.24898        1.60060        0.65030
C          0.89283        0.13343        0.50329
C          1.31671       -0.71942        1.70410
C          0.25816       -1.13165        2.74921
C         -1.12244       -1.69028        2.35529
C         -1.40648       -3.18484        2.06646
O         -0.38635       -4.11082        2.41258
C          0.02603       -5.02776        1.35690
O         -0.98257       -5.31058        0.39861
C         -0.60403       -5.59127       -0.97114
C         -1.87765       -5.30855       -1.79390
O         -2.05943       -3.90886       -2.04091
C          0.65168       -4.83463       -1.50995
O          0.48920       -4.29355       -2.82163
C          1.06861       -3.74036       -0.53753
O         -0.01577       -2.79725       -0.51187
C          1.33346       -4.47307        0.78445
O          2.04263       -3.71370        1.76244
H          0.68668        2.06098        1.46557
H          1.01622        2.13331       -0.27811
H          2.31984        1.72728        0.84233
H         -0.16983        0.02907        0.27270
H          1.43668       -0.23565       -0.37869
H          1.79352       -1.60469        1.29576
H          2.13048       -0.21295        2.24015
H          0.72552       -1.81109        3.47153
H          0.05262       -0.21272        3.31508
H         -1.76979       -1.45482        3.21319
H         -1.55408       -1.09909        1.54073
H         -2.28103       -3.47389        2.66575
H         -1.75475       -3.28748        1.03720
H          0.26192       -5.96484        1.87602
H         -0.40055       -6.66739       -1.02142
H         -1.83630       -5.81301       -2.76328
H         -2.76713       -5.65429       -1.25724
H         -1.78562       -3.43572       -1.22700
H          1.47656       -5.55042       -1.59696
H         -0.27082       -3.67198       -2.77126
H          1.94743       -3.18481       -0.87865
H          0.22981       -2.11109        0.11152
H          2.00196       -5.31302        0.56320
H          1.45459       -3.67664        2.54834
