11

Cl         0.97783       -0.14834        0.31816
C          2.74496       -0.07435        0.12204
C          3.26595       -1.20390       -0.76256
C          2.78883       -1.15797       -2.20627
Br         3.62864        0.30878       -3.17420
H          2.99974        0.91226       -0.27357
H          3.18064       -0.15657        1.12264
H          4.36271       -1.19068       -0.73458
H          2.95923       -2.16280       -0.32598
H          3.08918       -2.06578       -2.73777
H          1.70825       -1.03469       -2.30601
