24

C          2.25256       -0.67200       -0.97967
C          0.89724       -0.28436       -0.46877
C         -0.00997       -1.34740       -0.26156
C         -1.33663       -1.11455        0.10270
C         -1.78078        0.18654        0.27568
C         -0.88898        1.24608        0.10634
C          0.45484        1.02294       -0.23944
O          1.15154        2.18146       -0.42880
C          2.45113        2.36183        0.14820
C          2.58413        1.89590        1.56120
C          3.55927        0.81381        1.95575
O          3.87018        2.19787        2.13791
H          2.81224       -1.19526       -0.19820
H          2.14670       -1.34491       -1.83806
H          2.83876        0.17178       -1.33608
H          0.31202       -2.37448       -0.42262
H         -2.02254       -1.94933        0.22489
H         -2.81907        0.38325        0.53022
H         -1.24761        2.26474        0.23219
H          3.22240        1.95877       -0.51220
H          2.61401        3.44668        0.14655
H          1.72259        2.10934        2.17752
H          3.34719        0.22878        2.84142
H          4.10644        0.28289        1.18766
