14

F         -2.13212        0.14949       -0.01064
C         -0.79336        0.08849       -0.00723
C         -0.08023        1.27255        0.00012
C          1.30682        1.20416        0.00391
C          1.92527       -0.04417       -0.00015
C          1.13665       -1.19903       -0.00824
C          1.80201       -2.56989       -0.01420
F          1.47901       -3.32632        1.07314
F          1.47823       -3.31713       -1.10767
F          3.16803       -2.50333       -0.01446
N         -0.22601       -1.13482       -0.01143
H         -0.60318        2.22125        0.00274
H          1.90188        2.11373        0.00976
H          3.01082       -0.11036        0.00265
