39

C          0.74037        0.06300        0.12158
C          0.46323       -1.42009        0.30362
O          1.00003       -1.89622        1.54826
C          2.35419       -2.11027        1.55685
O          3.07157       -1.95885        0.57540
C          2.80989       -2.60550        2.96177
C          2.18909       -1.74910        4.07901
O          2.31961       -3.94321        3.15291
C          4.33730       -2.57647        3.07946
C          5.09354       -3.74560        3.25121
C          6.48995       -3.69121        3.33024
C          7.16263       -2.47134        3.23371
O          8.53793       -2.55030        3.30502
C          9.26410       -1.38557        3.33028
C         10.10962       -1.11960        2.25382
C         10.88047        0.04286        2.25111
C         10.81083        0.92825        3.32809
C          9.98590        0.64364        4.41787
C          9.22344       -0.52453        4.42892
C          6.42530       -1.30358        3.04186
C          5.02997       -1.35506        2.97912
H          0.36751        0.63369        0.97808
H          0.26319        0.43621       -0.78902
H          1.81420        0.26327        0.05164
H         -0.61843       -1.58470        0.34208
H          0.84929       -2.00977       -0.53575
H          1.09963       -1.86854        4.11496
H          2.56080       -2.06074        5.06291
H          2.40002       -0.68209        3.95281
H          1.35332       -3.90531        3.04053
H          4.60433       -4.71574        3.31446
H          7.05504       -4.61164        3.45443
H         10.16168       -1.81272        1.41896
H         11.53525        0.25772        1.41068
H         11.40692        1.83740        3.32144
H          9.93967        1.33030        5.25891
H          8.58962       -0.75431        5.28057
H          6.90781       -0.33830        2.92307
H          4.49121       -0.42331        2.81838
