17

C          0.99441       -0.07630        0.17337
C          0.26810        0.85992       -0.44989
C         -1.22801        0.97010       -0.34779
C         -1.71719        2.33118        0.16371
C         -1.36254        3.52885       -0.72358
N         -2.13293        3.48845       -1.97703
C         -1.54742        3.12632       -2.92949
S         -0.78034        2.61236       -4.22514
H          0.53710       -0.82794        0.80901
H          2.07233       -0.11669        0.04653
H          0.78771        1.56576       -1.09362
H         -1.66420        0.75657       -1.32956
H         -1.61370        0.19587        0.32763
H         -2.80827        2.28365        0.27490
H         -1.30736        2.50416        1.16662
H         -1.65511        4.44330       -0.19215
H         -0.27997        3.61104       -0.88514
