19

C          0.77532       -0.10751        0.01470
C          0.53537        0.70996       -1.22693
O         -0.17007        0.26627       -2.13714
N          0.98595        1.99542       -1.32034
C          1.87699        2.72103       -0.50730
C          1.52158        4.05479       -0.25564
C          2.31474        4.86799        0.55739
C          3.49277        4.36850        1.10317
C          3.89181        3.06499        0.81102
C          3.09999        2.24515       -0.00397
Cl         3.80352        0.74319       -0.49371
H         -0.17480       -0.56481        0.31069
H          1.10910        0.49532        0.86061
H          1.49077       -0.90481       -0.19659
H          0.47275        2.51485       -2.02352
H          0.59835        4.46600       -0.65902
H          2.00986        5.89127        0.76482
H          4.11487        5.00077        1.73221
H          4.84223        2.70172        1.19575
