24

O          0.97555       -0.33199       -0.13662
N          2.13635        0.09243       -0.04987
O          2.62828        0.95641       -0.79040
C          2.98952       -0.46728        1.00285
C          4.18479        0.17564        1.34070
C          4.99529       -0.36536        2.34367
C          4.63203       -1.54699        3.01484
C          5.49845       -2.11484        4.05987
C          5.88606       -1.35040        5.17291
C          6.71893       -1.88571        6.15918
C          7.17908       -3.19525        6.04775
C          6.80472       -3.97071        4.95342
C          5.97018       -3.43493        3.96884
C          3.42481       -2.17346        2.65659
C          2.60206       -1.64078        1.65853
H          4.49906        1.08821        0.83852
H          5.92979        0.13595        2.59281
H          5.53151       -0.32767        5.28470
H          7.00685       -1.27907        7.01392
H          7.82950       -3.61100        6.81291
H          7.16507       -4.99213        4.86201
H          5.70089       -4.05480        3.11595
H          3.11222       -3.08394        3.16645
H          1.67418       -2.15012        1.40687
