51

C         -0.45610       -0.17739        0.05894
O         -0.34691       -0.87832        1.28799
C          0.43329       -1.99407        1.39902
C          1.41922       -2.52827        0.64228
C          2.01216       -3.84999        1.06597
O          3.00287       -4.33576        0.54127
O          1.29554       -4.43113        2.06462
C          1.76761       -5.71349        2.48468
C          1.97753       -1.88328       -0.56786
C          1.79821       -2.53008       -1.80405
C          2.29324       -1.97544       -2.98556
C          2.94098       -0.74594       -2.95823
C          3.14148       -0.09595       -1.74264
C          2.71847       -0.68043       -0.53057
C          3.17771       -0.03860        0.76923
O          4.59213        0.23647        0.74095
C          5.32147       -0.88419        1.06132
C          5.44669       -1.91199        0.15558
C          6.13239       -3.02453        0.57850
C          6.23901       -4.23127       -0.33477
F          7.47386       -4.32773       -0.91074
F          6.03297       -5.41872        0.30115
F          5.36168       -4.20700       -1.38116
N          6.75956       -3.03823        1.77656
C          6.66998       -1.93875        2.53546
O          7.39157       -1.86151        3.70165
C          8.47524       -2.78522        3.87606
C          8.00288       -4.20129        4.20329
C          9.54367       -2.72839        2.77981
N          5.93620       -0.85933        2.24897
H         -1.33849        0.46636        0.12487
H         -0.60644       -0.85532       -0.78576
H          0.39959        0.48167       -0.09395
H          0.11303       -2.46771        2.32550
H          1.47622       -6.47046        1.75070
H          2.85126       -5.71619        2.63704
H          1.28777       -5.95298        3.43841
H          1.29078       -3.49250       -1.85489
H          2.17567       -2.50809       -3.92628
H          3.32323       -0.30968       -3.87791
H          3.69518        0.84243       -1.72978
H          2.66171        0.92265        0.87821
H          2.93055       -0.62763        1.65999
H          5.01221       -1.87546       -0.83215
H          8.97612       -2.42666        4.78465
H          7.54425       -4.70358        3.34759
H          8.84098       -4.82251        4.53410
H          7.25017       -4.17519        4.99826
H          9.86932       -1.69546        2.61731
H         10.41543       -3.32963        3.05737
H          9.18887       -3.10400        1.81620
