36

C          1.21726        0.10611       -0.38857
C          0.91103       -1.36108       -0.64460
C          1.41974       -2.29660        0.45849
C          0.87331       -2.02687        1.86567
C         -0.62495       -2.09828        1.92409
C         -1.31572       -3.02891        2.59975
C         -2.81659       -3.09145        2.58244
C         -3.35146       -4.51086        2.35193
C         -3.28567       -5.41595        3.58728
C         -4.21465       -4.99591        4.72579
O         -5.58784       -5.26431        4.37937
C         -6.55913       -4.32696        4.28857
C         -6.14773       -2.91382        4.00221
O         -7.74171       -4.64153        4.36192
H          0.68385        0.48154        0.48972
H          0.90453        0.70979       -1.24655
H          2.28959        0.26194       -0.23599
H         -0.16824       -1.48850       -0.78609
H          1.37954       -1.65692       -1.59087
H          1.17536       -3.32812        0.17292
H          2.51467       -2.23893        0.49495
H          1.31676       -2.75653        2.55491
H          1.19710       -1.04119        2.21814
H         -1.16569       -1.33217        1.37160
H         -0.78048       -3.78148        3.17381
H         -3.19270       -2.67399        3.52047
H         -3.20395       -2.45095        1.77992
H         -4.38901       -4.45480        2.00434
H         -2.78687       -4.98440        1.53825
H         -3.55790       -6.43072        3.27102
H         -2.25677       -5.46212        3.96019
H         -3.99928       -5.62926        5.59403
H         -4.04781       -3.96900        5.05240
H         -5.69404       -2.84961        3.01234
H         -7.04431       -2.28476        3.98922
H         -5.49205       -2.51202        4.77437
