65

C          1.17788        0.52078        0.28352
C          0.97678        0.53516       -1.22369
C          1.44240       -0.75741       -1.89820
C          0.69149       -2.01633       -1.45222
C         -0.82124       -1.96379       -1.68752
C         -1.21708       -1.78283       -3.15732
C         -0.73340       -2.90915       -4.07842
C         -1.19963       -4.30499       -3.65548
C         -2.71978       -4.43801       -3.56037
C         -3.41530       -4.38354       -4.92261
C         -3.20743       -5.65164       -5.75844
C         -3.78966       -6.91375       -5.11936
O         -5.21594       -6.80241       -5.13024
C         -5.85503       -6.29671       -4.05227
O         -5.37187       -6.17730       -2.93418
C         -7.26783       -5.87785       -4.39976
C         -7.53313       -5.55328       -5.87905
C         -7.33992       -6.69093       -6.89651
C         -7.82951       -8.06522       -6.43477
C         -9.35172       -8.17439       -6.35581
C        -10.05711       -8.09375       -7.71354
C         -9.59253       -9.12403       -8.74731
C         -9.80126      -10.56117       -8.29538
H          0.56792       -0.24946        0.76491
H          0.88970        1.48526        0.71200
H          2.22735        0.33580        0.53318
H         -0.07666        0.73209       -1.45120
H          1.54260        1.37291       -1.64718
H          1.35294       -0.63997       -2.98464
H          2.51153       -0.90093       -1.70096
H          1.11833       -2.88143       -1.97332
H          0.87651       -2.20111       -0.38810
H         -1.27049       -2.88070       -1.28827
H         -1.26393       -1.15250       -1.09921
H         -2.30781       -1.69339       -3.21979
H         -0.83431       -0.82885       -3.53573
H         -1.06925       -2.69672       -5.09949
H          0.36127       -2.90606       -4.12664
H         -0.79688       -5.04404       -4.35656
H         -0.76380       -4.56247       -2.68352
H         -2.94657       -5.37302       -3.04203
H         -3.13836       -3.65758       -2.91693
H         -4.48539       -4.20664       -4.77150
H         -3.06795       -3.51804       -5.49678
H         -3.69931       -5.48925       -6.72657
H         -2.14335       -5.80036       -5.96548
H         -3.53941       -7.77569       -5.74700
H         -3.39931       -7.12727       -4.12104
H         -7.95634       -6.64386       -4.03243
H         -7.46661       -4.96085       -3.82989
H         -8.56565       -5.19176       -5.96161
H         -6.89371       -4.71423       -6.18375
H         -7.82069       -6.40506       -7.83856
H         -6.27947       -6.77114       -7.16108
H         -7.42782       -8.82924       -7.10869
H         -7.40741       -8.31588       -5.45568
H         -9.61017       -9.12017       -5.86589
H         -9.74728       -7.38530       -5.70535
H        -11.13486       -8.21205       -7.55001
H         -9.92587       -7.09070       -8.13581
H        -10.15184       -8.96166       -9.67574
H         -8.53752       -8.96892       -8.99926
H        -10.85362      -10.74452       -8.05755
H         -9.50554      -11.25286       -9.09009
H         -9.20124      -10.79924       -7.41190
