12

F          1.21781        0.74517        0.20966
C          2.43641        0.16972        0.15238
F          2.28200       -1.16198        0.28627
O          3.00254        0.46159       -1.10737
C          2.38249       -0.21819       -2.20418
Cl         3.18942       -1.80625       -2.43920
C          0.84393       -0.32161       -2.26585
F          0.27319        0.90253       -2.15189
F          0.44461       -0.81628       -3.46554
F          0.31682       -1.11595       -1.31217
H          3.06494        0.55879        0.95735
H          2.68327        0.35607       -3.08629
