34

C          1.69084       -1.24107        0.19148
C          1.04758       -1.41018        1.56320
C          1.17911       -0.24710        2.56678
C          0.19939        0.96072        2.54325
C          0.72301        2.34678        2.12236
C          0.96551        2.48029        0.60757
C          2.37779        1.94121        0.33554
O          1.04340        3.91906        0.29248
C          1.20412        4.50332       -0.92182
C          1.51481        3.67607       -2.14061
O          1.13343        5.72348       -1.02749
C         -0.29018        1.94199       -0.11046
C         -1.04674        0.76937        0.49889
O         -1.04358        0.69793        1.91029
H          1.32687       -0.37009       -0.35225
H          1.46885       -2.11028       -0.43675
H          2.77956       -1.16374        0.27092
H         -0.00254       -1.69910        1.45360
H          1.53672       -2.28389        2.01388
H          0.98662       -0.73221        3.53685
H          2.21776        0.08711        2.65948
H         -0.06733        1.09944        3.60121
H         -0.03410        3.09395        2.40532
H          1.61771        2.61573        2.69806
H          2.60191        1.76277       -0.71410
H          3.12214        2.66966        0.68814
H          2.60778        1.02380        0.86258
H          0.83414        3.96596       -2.94646
H          2.54881        3.85927       -2.44481
H          1.39347        2.60648       -2.03012
H         -0.10602        1.70102       -1.15838
H         -1.01307        2.77181       -0.14258
H         -0.72066       -0.17751        0.07325
H         -2.09890        0.84410        0.19692
