29

C          0.65241       -0.01077        0.20186
O          0.72725        0.39056        1.56896
C          1.09391       -0.58856        2.44839
C          0.24707       -0.73784        3.55162
C          0.55656       -1.63441        4.58376
O         -0.33737       -1.66202        5.63260
C          0.12762       -1.97798        6.88930
C         -0.51007       -3.05358        7.51817
C         -0.14798       -3.42396        8.81455
C          0.84662       -2.71315        9.48370
Cl         1.29524       -3.17316       11.07958
C          1.46882       -1.62308        8.87818
C          1.09652       -1.24002        7.58626
Cl         1.83742        0.17666        6.93273
C          1.70059       -2.43367        4.49982
C          2.57057       -2.28018        3.41915
C          2.26484       -1.34777        2.41627
N          3.25422       -1.15235        1.38551
O          4.17771       -0.36493        1.63177
O          3.13089       -1.82682        0.35542
H         -0.18631        0.52145       -0.25771
H          0.47561       -1.08479        0.07898
H          1.56313        0.29737       -0.31972
H         -0.65159       -0.12846        3.62503
H         -1.29517       -3.59904        6.99948
H         -0.64915       -4.25902        9.29828
H          2.22865       -1.06288        9.41729
H          1.94462       -3.15279        5.27694
H          3.48948       -2.86125        3.37776
