35

C          0.95200        0.01814       -0.04037
C          0.28662       -0.11724        1.33168
C         -1.22420        0.06140        1.26525
C          0.61363       -1.51300        1.88832
O          0.34281       -2.58471        1.36720
N          1.30269       -1.37326        3.04729
C          1.59784       -0.07399        3.28055
O          2.37558        0.30543        4.13735
N          0.91155        0.71059        2.36945
C          1.16202        2.12684        2.20976
N          0.32698        2.99425        3.01667
C         -0.40564        4.01766        2.43270
O         -0.60194        4.18181        1.23990
N         -0.82122        4.86590        3.40171
C         -0.24398        4.56202        4.59038
O         -0.31961        5.25516        5.59455
C          0.50802        3.22530        4.45694
C         -0.23327        2.20054        5.31219
C          1.95377        3.46277        4.89119
H          0.70794        0.97427       -0.51469
H          0.62674       -0.77719       -0.72068
H          2.04382       -0.04518        0.03832
H         -1.49225        1.07035        0.93663
H         -1.67249       -0.65511        0.56659
H         -1.68850       -0.10673        2.24380
H          1.70804       -2.13680        3.56068
H          2.21090        2.33977        2.43785
H          1.02207        2.38506        1.15682
H         -1.30019        5.73084        3.21821
H          0.13632        1.18573        5.16084
H         -0.13629        2.43527        6.37850
H         -1.30574        2.19359        5.08170
H          2.38690        4.32679        4.37326
H          2.01504        3.66489        5.96653
H          2.59970        2.60891        4.68489
