33

O          2.68275        0.96380        0.90852
C          3.37255        0.17257        0.28072
O          4.28794       -0.61867        0.87758
C          3.28251       -0.02071       -1.21204
C          2.62890       -1.34907       -1.56122
C          1.24251       -1.19638       -2.15916
O          1.03885       -1.20240       -3.36802
C          0.10604       -1.11601       -1.22144
C         -0.77651       -2.18977       -1.11940
C         -1.77922       -2.16600       -0.14176
C         -1.91084       -1.08078        0.74668
C         -2.89765       -1.08509        1.84852
C         -3.14680       -2.24739        2.60014
C         -4.03195       -2.23770        3.68283
C         -4.68410       -1.06176        4.04072
C         -4.46166        0.10036        3.30947
C         -3.58352        0.08540        2.22192
C         -1.03680        0.00766        0.57570
C         -0.04836        0.00132       -0.40872
H          4.79620       -1.18478        0.26658
H          2.74862        0.83349       -1.64356
H          4.30406        0.02646       -1.60717
H          3.23695       -1.85729       -2.32086
H          2.57550       -2.03717       -0.70956
H         -0.68030       -3.04921       -1.77838
H         -2.45647       -3.01533       -0.07224
H         -2.62828       -3.17497        2.36764
H         -4.19907       -3.14726        4.25369
H         -5.36094       -1.04966        4.89062
H         -4.96455        1.02335        3.58594
H         -3.43581        1.01015        1.66768
H         -1.08972        0.87059        1.23759
H          0.59500        0.86992       -0.50794
