30

O          1.43160        0.98194       -0.54715
C          2.52407        0.55899       -0.20717
O          3.34148        1.25079        0.61748
C          3.07802       -0.78304       -0.62751
C          2.57908       -1.91057        0.27034
C          1.08445       -2.21953        0.13219
C          0.62826       -2.84454       -1.19424
C          1.40781       -4.04928       -1.74775
C          1.21963       -5.41981       -1.13021
C          0.98829       -5.64112        0.23095
C          0.89626       -6.93679        0.75034
C          1.04244       -8.03910       -0.08401
C          1.27823       -7.84525       -1.44046
C          1.37001       -6.54902       -1.95635
H          4.18501        0.80545        0.81927
H          2.82192       -0.94966       -1.67858
H          4.17317       -0.74038       -0.59193
H          3.16631       -2.81488        0.07712
H          2.77418       -1.64328        1.31682
H          0.78978       -2.85803        0.96686
H          0.50538       -1.30141        0.28698
H         -0.43372       -3.10745       -1.10967
H          0.67858       -2.05385       -1.95529
H          1.09563       -4.13405       -2.79936
H          2.48072       -3.83067       -1.77974
H          0.88226       -4.82513        0.93085
H          0.71717       -7.07951        1.81312
H          0.97757       -9.04389        0.32371
H          1.39794       -8.70191       -2.09825
H          1.56713       -6.42674       -3.01983
