57

C          1.31724       -0.28617       -0.03904
C          0.56336        0.50227       -1.06989
O         -0.33530       -0.07129       -1.69713
C          0.96771        1.96562       -1.39356
C          2.17918        1.86939       -2.34348
C         -0.21261        2.53640       -2.22667
C         -0.05092        4.02957       -2.13408
C          0.17844        4.21569       -0.63922
C          0.51063        5.64237       -0.17218
C         -0.33472        6.66667       -0.94019
C         -0.15644        7.95722       -0.60787
C         -0.95421        8.62297        0.47498
C          1.24183        8.33564       -0.62270
C          1.77324        8.72275       -1.80778
C          2.76700        9.80051       -1.53316
O          3.17264       10.51828       -2.44907
C          3.20369        9.92551       -0.09867
C          3.44723        8.47368        0.44130
C          2.11868        7.60657        0.43334
C          1.65721        7.66561        1.91910
C          2.03906        6.06174       -0.06215
C          2.71521        4.95525        0.77015
C          2.59016        3.58337        0.03996
C          1.13224        3.05538       -0.20141
C          0.59542        2.52803        1.15043
H          1.38027       -1.32747       -0.37292
H          0.76877       -0.26335        0.90483
H          2.33054        0.09416        0.08682
H          3.04597        1.42413       -1.84701
H          1.94641        1.23611       -3.20958
H          2.47093        2.84428       -2.74697
H         -1.17915        2.25518       -1.78164
H         -0.22933        2.19211       -3.26604
H         -0.96676        4.51840       -2.48312
H          0.79136        4.39146       -2.73082
H         -0.80859        4.00836       -0.18982
H          0.11956        5.65768        0.85403
H         -0.12505        6.50606       -2.00611
H         -1.81286        9.13666        0.03696
H         -1.31353        7.89485        1.20899
H         -0.36775        9.37743        1.01213
H          2.40611        8.00308       -2.34907
H          4.10082       10.54705       -0.04637
H          2.40326       10.44876        0.44736
H          3.82581        8.61090        1.46375
H          4.24333        7.99310       -0.13268
H          2.44029        7.25364        2.57077
H          1.47015        8.69219        2.24966
H          0.75912        7.08579        2.13469
H          2.49287        6.01803       -1.06293
H          2.26910        4.88004        1.76853
H          3.77710        5.18660        0.91380
H          3.15575        2.82953        0.60396
H          3.11963        3.70251       -0.90891
H         -0.38552        2.05243        1.03576
H          1.27876        1.80332        1.60146
H          0.47497        3.33705        1.87891
