27

C          0.87006        0.02284        0.05237
C          0.40292        0.61512        1.37309
C          0.98932        1.97904        1.62544
N          0.17082        3.02289        1.30821
C          0.60385        4.27319        1.49289
N         -0.20960        5.28328        1.18045
C          0.25167        6.52436        1.37602
N          1.45327        6.84461        1.85514
C          2.22880        5.79305        2.15216
O          3.47461        6.10785        2.64568
C          1.88646        4.46478        2.00417
N          2.73552        3.45026        2.32990
C          2.27589        2.19020        2.12651
C          3.23322        1.08545        2.48864
C          4.48069        1.11038        1.61547
H          0.58867        0.66533       -0.78892
H          0.41268       -0.95943       -0.10325
H          1.95656       -0.10432        0.02641
H         -0.69129        0.69835        1.35003
H          0.62643       -0.06033        2.20545
H         -0.41331        7.34293        1.12105
H          3.90213        5.24358        2.80415
H          3.52086        1.20883        3.53971
H          2.77132        0.09800        2.41320
H          5.04273        2.04115        1.74784
H          5.14260        0.27915        1.87841
H          4.22462        1.02084        0.55449
