55

C          0.89639       -0.24834        0.25409
C          0.57812       -0.70920       -1.14981
C          0.68690       -2.08667       -1.50576
C          1.27728       -3.07942       -0.55195
O          1.89886       -2.85309        0.47015
O          1.08341       -4.35888       -0.93733
C          0.28538       -2.49641       -2.79198
O          0.32315       -3.78733       -3.24560
C         -0.18453       -1.58145       -3.72233
C         -0.22676       -0.22717       -3.40015
C          0.17235        0.22769       -2.14006
C          0.23835        1.70707       -1.93591
O          1.01064        2.18072       -1.11166
C         -0.50720        2.61106       -2.84749
C         -0.74181        3.97205       -2.54251
O         -0.47975        4.41559       -1.27250
C         -1.31414        4.87584       -3.47094
C         -1.46720        6.35537       -3.11485
O         -0.49474        7.21146       -3.73033
C         -0.74553        7.64183       -5.07574
C          0.12583        6.80514       -6.04898
O         -0.28778        6.76336       -7.40406
C         -2.22389        8.00302       -5.41689
O         -2.57698        7.70850       -6.77889
C         -3.33418        7.50634       -4.46905
O         -4.18343        6.53156       -5.10533
C         -2.85462        7.01056       -3.11242
O         -3.83944        6.19535       -2.47313
C         -1.67438        4.32189       -4.70115
O         -2.22088        5.06842       -5.70565
C         -1.47492        2.97584       -5.00999
O         -1.86293        2.59554       -6.27399
C         -0.89649        2.11789       -4.08574
C         -0.69998        0.70791       -4.42760
O         -0.97170        0.32337       -5.56145
H          0.56931       -0.98188        0.99687
H          0.33993        0.65328        0.52579
H          1.96898       -0.06206        0.36029
H          1.52832       -4.87042       -0.22266
H          0.60024       -4.36427       -2.50261
H         -0.49186       -1.93047       -4.70727
H          0.34362        4.93703       -1.30180
H         -1.18808        6.41987       -2.05697
H         -0.24517        8.62141       -5.11161
H          1.14104        7.22232       -6.04393
H          0.26758        5.78149       -5.69674
H         -1.25167        6.94565       -7.41721
H         -2.26743        9.09910       -5.34990
H         -3.53794        7.51077       -6.77420
H         -4.02302        8.34186       -4.29141
H         -3.58840        5.80895       -5.39718
H         -2.75249        7.91409       -2.49409
H         -4.35505        5.77694       -3.19082
H         -2.17684        4.48893       -6.50444
H         -1.63781        1.64075       -6.38727
