22

C          0.98262        0.04405        0.04420
C          0.52213        0.64545       -1.27075
N          1.07673       -0.08704       -2.39333
C          0.38009       -0.75709       -3.35709
S          1.19229       -1.54327       -4.56897
O         -0.96023       -0.69736       -3.20519
C         -2.02199       -1.25679       -4.03107
C         -2.07372       -0.65545       -5.42994
C         -2.05262       -2.77915       -4.00439
H          0.64581       -0.99342        0.13999
H          0.58428        0.61599        0.88767
H          2.07574        0.04711        0.11422
H         -0.57043        0.66165       -1.31276
H          0.87978        1.67655       -1.35514
H          2.08265       -0.09695       -2.50780
H         -2.93676       -0.92423       -3.52426
H         -1.25493       -1.00053       -6.06512
H         -3.00890       -0.92651       -5.93102
H         -2.00836        0.43650       -5.38106
H         -1.99634       -3.14445       -2.97359
H         -2.97650       -3.15428       -4.45681
H         -1.21757       -3.22424       -4.54981
