23

C          1.00812       -0.16031       -0.00117
S          0.47318       -1.40728        1.13790
O          1.17608       -1.20864        2.39097
O         -0.97565       -1.43279        1.08370
C          1.04105       -2.95983        0.48238
C          0.23940       -4.09106        0.65691
C          0.65816       -5.32903        0.15605
C          1.87994       -5.44484       -0.52052
C          2.36531       -6.76041       -1.05009
N          1.79650       -7.90012       -0.81167
N          3.47402       -6.83348       -1.84214
C          2.67384       -4.29775       -0.68749
C          2.25857       -3.05618       -0.19088
H          0.57230        0.79047        0.31555
H          0.65447       -0.41061       -1.00276
H          2.09590       -0.08111        0.02553
H         -0.70641       -4.02158        1.19270
H          0.00767       -6.18305        0.31391
H          0.98530       -7.81930       -0.19995
H          3.52939       -6.14936       -2.58566
H          3.57061       -7.77875       -2.20504
H          3.64008       -4.36047       -1.18223
H          2.91188       -2.19825       -0.31705
