27

O          0.62587        0.08510       -0.19670
N          1.83797       -0.10178       -0.25218
O          2.48008       -1.15078       -0.17851
O          2.57676        1.10746       -0.28685
C          3.97285        0.94572       -0.54681
C          4.84177        1.17334        0.72011
C          4.52330        0.11487        1.80170
O          4.83508       -1.19211        1.34809
C          6.34701        1.03277        0.34262
O          6.81337        2.07116       -0.51527
N          7.01883        1.69209       -1.86315
O          6.59053        0.59259       -2.21026
O          7.53454        2.58454       -2.53118
C          4.53421        2.56169        1.34851
O          4.75144        3.63524        0.43643
N          5.78090        4.53766        0.81700
O          6.48042        4.22387        1.77966
O          5.85216        5.51253        0.07399
H          4.21588       -0.00349       -1.03912
H          4.20922        1.71494       -1.29101
H          5.12778        0.29462        2.69839
H          3.47520        0.14537        2.11914
H          4.04397       -1.56991        0.90930
H          6.94166        1.12937        1.26108
H          6.58104        0.02816       -0.03116
H          3.46916        2.60959        1.60938
H          5.05244        2.66610        2.30839
