22

Cl         3.42519       -0.10056        0.23779
C          1.73991        0.21186        0.09703
C          0.85031       -0.84792       -0.03228
C         -0.51534       -0.58982       -0.16934
Cl        -1.56168       -1.95889       -0.33070
C         -0.99419        0.73202       -0.17841
Cl        -2.68730        1.04672       -0.42417
C         -0.09464        1.81286       -0.01915
C         -0.52839        3.22579        0.00628
C         -0.25622        4.03476       -1.11440
C         -0.64820        5.37182       -1.14370
Cl        -0.28361        6.33580       -2.52044
C         -1.32679        5.93315       -0.06868
C         -1.60115        5.15376        1.05723
Cl        -2.44485        5.92208        2.35843
C         -1.19513        3.80878        1.11006
Cl        -1.47513        2.86691        2.54553
C          1.27874        1.52693        0.10930
H          1.21775       -1.87107       -0.03257
H          0.26520        3.61490       -1.97415
H         -1.63620        6.97475       -0.10324
H          1.99503        2.34020        0.22266
