41

C          0.86866       -0.23621        0.01586
C          0.31578        0.95377       -0.75468
N          0.95809        1.11810       -2.06487
C          0.34547        0.35894       -3.15521
C         -0.73246        1.13076       -3.89296
C          2.12236        1.87850       -2.09819
O          2.62330        2.26400       -1.02743
C          2.79937        2.39344       -3.41138
C          2.84765        1.49879       -4.64108
O          2.63366        3.76314       -3.80783
C          1.34440        4.22390       -3.85413
C          0.67748        4.51763       -2.66246
C         -0.61834        5.02284       -2.69288
C         -1.23746        5.27457       -3.91600
C         -0.55986        5.05024       -5.12495
C         -1.17212        5.34609       -6.35416
C         -0.49453        5.15113       -7.55768
C          0.80563        4.66031       -7.54834
C          1.42572        4.35618       -6.33502
C          0.75886        4.53327       -5.10386
H          0.71022       -1.17088       -0.53118
H          0.37137       -0.32172        0.98701
H          1.94405       -0.13175        0.19114
H         -0.76460        0.84229       -0.90171
H          0.45440        1.86486       -0.16078
H          1.10359       -0.00479       -3.84363
H         -0.10262       -0.54607       -2.72686
H         -0.31162        1.96820       -4.44805
H         -1.23749        0.47843       -4.61233
H         -1.48487        1.52625       -3.20364
H          3.85498        2.38210       -3.09364
H          1.90608        1.51150       -5.19515
H          3.60704        1.86579       -5.34210
H          3.10923        0.46897       -4.38102
H          1.16772        4.37078       -1.70354
H         -1.13946        5.23543       -1.76326
H         -2.24884        5.67549       -3.91828
H         -2.18438        5.74373       -6.38234
H         -0.97923        5.39339       -8.49976
H          1.34257        4.51914       -8.48256
H          2.44868        3.98697       -6.35122
