58

C          0.76801       -0.95598        1.49341
C          0.25733       -0.61567        0.10240
C          0.75055       -1.61257       -0.94903
C         -0.32161       -2.52913       -1.54647
C         -1.50856       -1.87799       -2.27526
C         -1.26273       -0.80595       -3.35905
N         -0.58521       -1.24830       -4.56357
C         -1.28849       -1.14621       -5.83266
C         -1.52964        0.24216       -6.45525
C         -0.45105        0.88108       -7.34594
C          0.21763       -0.04647       -8.36630
C          0.35844        0.56439       -9.76365
C          1.18881        1.83710       -9.81724
C          0.85932       -1.39523       -4.56803
C          1.77588       -0.19210       -4.83624
C          1.40789        1.20336       -4.31514
C          1.61784        1.51928       -2.83569
C          3.03392        1.33665       -2.29701
C          3.93573        2.50878       -2.64500
H          0.41263       -1.93960        1.81264
H          0.42063       -0.21040        2.21536
H          1.86342       -0.95725        1.51620
H         -0.83352       -0.54366        0.11733
H          0.63320        0.38397       -0.14232
H          1.23793       -1.06263       -1.75201
H          1.54409       -2.24351       -0.52834
H          0.16613       -3.23464       -2.22951
H         -0.72546       -3.14813       -0.73405
H         -2.10294       -2.68763       -2.72044
H         -2.16242       -1.42972       -1.51681
H         -2.26409       -0.43759       -3.63153
H         -0.77821        0.06173       -2.91748
H         -0.84152       -1.82457       -6.56449
H         -2.28832       -1.57864       -5.66811
H         -2.42412        0.14935       -7.08738
H         -1.81013        0.95923       -5.67394
H         -0.93442        1.71860       -7.86557
H          0.32323        1.34874       -6.73603
H          1.21446       -0.32565       -8.00532
H         -0.34638       -0.97715       -8.47601
H          0.82315       -0.18155      -10.41969
H         -0.63893        0.76510      -10.17143
H          2.19711        1.66954       -9.42696
H          1.27988        2.17498      -10.85530
H          0.72621        2.64764       -9.24691
H          1.18733       -1.87737       -3.65055
H          1.10647       -2.15279       -5.32538
H          2.78153       -0.46242       -4.49250
H          1.88135       -0.10911       -5.92161
H          1.99196        1.92842       -4.89458
H          0.36010        1.41688       -4.54818
H          1.29722        2.55438       -2.65914
H          0.93827        0.91510       -2.24457
H          2.98296        1.26009       -1.20378
H          3.47892        0.40169       -2.64772
H          3.57737        3.42415       -2.16156
H          4.95330        2.31998       -2.28998
H          3.97470        2.68211       -3.72380
