13

C          0.95063       -0.03741       -0.04409
C          0.22757        0.96683        0.47108
C         -1.28119        0.99540        0.51689
C         -1.77957        1.03560        1.95913
C         -1.78785        2.21363       -0.23782
N         -2.20818        3.22426       -0.86392
H          0.48810       -0.91992       -0.47620
H          2.03641        0.00654       -0.04805
H          0.75260        1.82659        0.88685
H         -1.69308        0.10334        0.02851
H         -1.42532        1.92960        2.48611
H         -2.87502        1.04868        1.99175
H         -1.43803        0.15688        2.51741
