24

C         -0.84061        1.22406        0.13050
C         -1.51256        0.07667        0.30334
C         -0.79114       -1.24445        0.25692
C          0.61487       -1.14131       -0.40064
C          0.66767       -1.14040       -1.92372
C          1.90414       -1.19132       -2.58645
C          1.96046       -1.17203       -3.97795
C          0.77081       -1.12099       -4.68015
N         -0.44065       -1.08741       -4.09147
C         -0.46357       -1.09362       -2.73613
N          1.32828        0.01132        0.18741
C          0.64610        1.28126       -0.07461
H         -1.37328        2.17112        0.13835
H         -2.58479        0.08012        0.47264
H         -1.40800       -1.99072       -0.25583
H         -0.68176       -1.59182        1.29301
H          1.15286       -2.04812       -0.09062
H          2.83158       -1.24105       -2.02148
H          2.90977       -1.19601       -4.50056
H          0.75903       -1.10523       -5.76588
H         -1.46847       -1.05234       -2.32729
H          2.27587        0.06080       -0.17487
H          1.06397        2.03173        0.60534
H          0.85533        1.62427       -1.09449
