30

C          3.27952        1.87505        0.01143
C          3.73623        0.57711       -0.03064
C          2.81353       -0.46755       -0.05942
C          1.40325       -0.26702       -0.04718
C          0.93208        1.07318       -0.02407
C          1.90617        2.11235        0.01139
C         -0.47732        1.33774       -0.02574
C         -1.00844        2.65825       -0.09161
C         -2.37395        2.93620       -0.07121
C         -3.26920        1.89508        0.02609
C         -2.78825        0.58748        0.07656
C         -1.40224        0.26110        0.03468
C         -0.92600       -1.09299        0.03502
C         -1.80362       -2.21397        0.09654
C         -1.36188       -3.53541        0.04939
C         -0.01416       -3.78888       -0.06658
C          0.87785       -2.71840       -0.10768
C          0.46762       -1.35523       -0.04294
H          3.97880        2.70544        0.04916
H          4.80185        0.36676       -0.03113
H          3.23900       -1.46647       -0.07682
H          1.61143        3.15641        0.06056
H         -0.35586        3.52175       -0.17979
H         -2.72494        3.96241       -0.13191
H         -4.33802        2.08680        0.05181
H         -3.54651       -0.18706        0.14072
H         -2.87782       -2.08286        0.18209
H         -2.07557       -4.35308        0.09550
H          0.35301       -4.80981       -0.12133
H          1.92585       -2.98593       -0.20057
