29

C          1.06012       -0.06861       -0.00495
C          0.19149        0.53438        0.81862
C         -1.28716        0.30275        0.78710
N         -1.75628        0.26270        2.15789
C         -2.49245        1.11061        2.90396
S         -3.02070        0.57563        4.39900
N         -2.81465        2.36964        2.52174
N         -2.42127        2.94184        1.31438
C         -2.88564        4.26369        1.10126
C         -3.24070        4.61740       -0.20895
C         -3.54606        5.93861       -0.54307
C         -3.47151        6.92779        0.44249
N         -3.72722        8.32911        0.08580
O         -3.99857        8.58215       -1.09755
O         -3.64552        9.17692        0.98475
C         -3.11571        6.59568        1.75686
C         -2.81462        5.26614        2.07822
H          0.73211       -0.75838       -0.77709
H          2.12657        0.12224        0.07270
H          0.57810        1.21807        1.57130
H         -1.79653        1.05456        0.18833
H         -1.52019       -0.67304        0.34705
H         -1.59608       -0.62254        2.62337
H         -3.47791        2.88105        3.09857
H         -1.39775        2.96441        1.26537
H         -3.27502        3.84953       -0.98011
H         -3.81603        6.17610       -1.56992
H         -3.04129        7.35755        2.53048
H         -2.49047        5.03195        3.08973
