22

Cl         2.97431        1.15741        0.34420
C          1.26881        0.91811        0.17708
C          0.46197        2.05788        0.24317
C         -0.93274        1.97149        0.09521
C         -1.74022        3.21516        0.18611
C         -2.45733        3.53216        1.36847
Cl        -2.35263        2.47738        2.75124
C         -3.23488        4.70005        1.44087
Cl        -4.15209        5.12421        2.84439
C         -3.28855        5.57655        0.35896
C         -2.57657        5.29480       -0.80548
Cl        -2.67680        6.45055       -2.08832
C         -1.81302        4.11914       -0.90327
Cl        -0.95182        3.76789       -2.37571
C         -1.50591        0.69899       -0.12840
Cl        -3.22820        0.58302       -0.37100
C         -0.69755       -0.45709       -0.16914
Cl        -1.42780       -2.02150       -0.40030
C          0.69679       -0.34568       -0.01812
Cl         1.71290       -1.75565       -0.07429
H          0.92979        3.02954        0.40302
H         -3.88513        6.48514        0.42500
