25

C          1.05739       -0.00472       -0.08967
C          0.62039       -1.42974       -0.39317
C          1.09822       -2.44404        0.65874
C          0.55135       -2.22994        2.08538
C         -0.96550       -2.07522        2.22977
C         -1.67555       -3.37201        1.97397
O         -1.45814       -4.42693        2.54860
O         -2.54833       -3.28757        0.95610
C          0.85301       -3.86737        0.14910
C          1.88810       -4.91176        0.47872
O         -0.16823       -4.17440       -0.46853
H          0.59254        0.37200        0.82578
H          0.76722        0.65935       -0.91001
H          2.14464        0.05523        0.02368
H         -0.46878       -1.46428       -0.50831
H          1.03163       -1.71269       -1.37112
H          2.19003       -2.33630        0.71984
H          0.88997       -3.05547        2.72476
H          1.01454       -1.32359        2.49585
H         -1.21482       -1.76966        3.25297
H         -1.35417       -1.29000        1.57397
H         -2.70439       -4.22082        0.69721
H          1.66359       -5.36155        1.44765
H          1.87980       -5.68077       -0.29952
H          2.88626       -4.46715        0.49498
