25

C         -0.05584        0.30622        0.87520
C          0.47915        1.67550        0.48880
O          1.02426        1.57533       -0.83255
C          2.30971        2.03830       -0.90777
C          2.54541        3.41577       -0.92548
C          3.84431        3.89688       -1.09312
C          4.90178        3.00457       -1.25603
C          4.66085        1.63026       -1.24979
C          3.35804        1.12320       -1.08041
C          3.11681       -0.37188       -1.06325
N          3.57363       -0.99786       -2.30991
N          3.66652       -0.95675        0.21506
O          4.67101       -1.65600        0.05625
H         -0.62533       -0.14020        0.05283
H         -0.69145        0.36541        1.76222
H          0.77113       -0.37702        1.09422
H         -0.34427        2.39653        0.45470
H          1.20725        2.01578        1.23627
H          1.72042        4.11550       -0.82796
H          4.03235        4.96726       -1.11100
H          5.91453        3.37434       -1.39622
H          5.49383        0.94067       -1.38465
H          2.04573       -0.58699       -0.99395
H          3.35643       -1.98941       -2.24826
H          3.00905       -0.61812       -3.06648
