39

O          1.43999       -0.09364        0.26868
C          0.72000       -0.60785       -0.84959
C          1.11532        0.14317       -2.13875
C          2.66138        0.24742       -2.23982
O          3.29216       -1.02269       -2.37739
C          0.59210       -0.66226       -3.34292
O         -0.76621       -1.07202       -3.19025
C          0.59774        1.61450       -2.08370
O         -0.78465        1.86254       -2.32189
C         -1.25504        2.00120       -3.66478
C         -0.97268        3.28848       -4.48952
C          0.52167        3.60076       -4.69128
O          1.22287        2.45485       -5.16016
C         -1.57166        3.04328       -5.90470
O         -2.99024        2.89091       -5.86835
C         -1.62401        4.52709       -3.84075
O         -3.03302        4.41082       -3.69059
H          1.68553       -0.84621        0.83235
H          0.95204       -1.67625       -0.93591
H         -0.35093       -0.51563       -0.63807
H          2.94557        0.83676       -3.11786
H          3.09721        0.75129       -1.36895
H          3.21395       -1.48448       -1.53075
H          0.70267       -0.10247       -4.27652
H          1.16503       -1.58512       -3.47987
H         -1.25720       -0.34592       -2.76302
H          0.78604        2.00347       -1.07441
H          1.20706        2.24539       -2.72182
H         -0.95581        1.13911       -4.25654
H         -2.34315        1.89855       -3.56512
H          0.65384        4.39350       -5.43701
H          0.98999        3.96190       -3.77049
H          2.15463        2.71322       -5.28268
H         -1.36127        3.89177       -6.56433
H         -1.14157        2.15171       -6.37788
H         -3.17957        1.93553       -5.80385
H         -1.20059        4.71546       -2.84866
H         -1.43480        5.41970       -4.44954
H         -3.38575        4.07910       -4.54436
