50

C          1.54306       -1.31670        0.87990
C          0.18475       -1.32925        0.17636
C         -0.33715        0.09876       -0.14140
N          0.09776        0.56600       -1.45154
C          0.72891        1.78296       -1.62802
C          0.18998        2.77828       -2.44954
F         -0.98927        2.55316       -3.06006
C          0.79812        4.03494       -2.62130
N          0.23492        4.93184       -3.55880
C          2.06501        4.25542       -2.03151
C          2.73632        5.58657       -2.17152
O          2.12675        6.52773       -2.67202
C          4.10898        5.73747       -1.63514
C          4.94648        6.94459       -1.71293
O          6.03370        7.08839       -1.17122
O          4.43172        7.93475       -2.45069
C          4.62643        4.68894       -0.98028
N          4.00656        3.48249       -0.73213
C          4.74406        2.41909       -0.00180
C          6.07472        2.53942        0.69992
C          4.81473        2.47847        1.50593
C          2.68586        3.26084       -1.24403
C          1.96385        2.07027       -1.02058
F          2.48145        1.13484       -0.21156
C         -0.12631       -0.33870       -2.57406
C          0.50594       -1.72687       -2.26889
C          2.01884       -1.71378       -2.50882
N          0.15793       -2.30683       -0.94325
H          1.55077       -0.57650        1.68875
H          2.37152       -1.08513        0.21142
H          1.75332       -2.29211        1.33113
H         -0.50505       -1.72894        0.93305
H         -1.43519        0.05838       -0.16320
H         -0.07703        0.80304        0.65762
H          0.57728        5.89298       -3.43471
H         -0.77852        4.87237       -3.61970
H          5.08218        8.66277       -2.38781
H          5.62839        4.76304       -0.57187
H          4.62721        1.44647       -0.47860
H          6.71479        1.66178        0.70650
H          6.63407        3.46396        0.70058
H          4.49818        3.39032        2.00013
H          4.59921        1.57385        2.06017
H          0.28106        0.05865       -3.51224
H         -1.20696       -0.46036       -2.71991
H          0.10221       -2.42600       -3.01336
H          2.45818       -2.69703       -2.30834
H          2.23147       -1.47132       -3.55662
H          2.53883       -0.97238       -1.89902
H         -0.80362       -2.64102       -1.01626
