76

C          1.12431       -0.29613       -0.43336
C          0.88661       -0.80657        0.97950
C          1.34181        0.18833        2.04966
C          0.63867        1.54774        1.98074
C         -0.88255        1.46241        2.13977
C         -1.31798        0.93852        3.51101
C         -0.86782        1.84007        4.66475
C         -1.44169        3.25956        4.57069
C         -2.97694        3.29388        4.60888
C         -3.56091        2.59588        5.84687
C         -3.07744        3.23690        7.16494
C         -3.58233        4.69017        7.30176
C         -5.09781        4.91719        7.18457
C         -5.93335        4.40966        8.35861
C         -5.47774        4.96428        9.71066
C         -5.77711        6.45817        9.86571
C         -7.27385        6.77705        9.95126
C         -8.00478        6.06847       11.09477
C         -7.45424        6.44163       12.46232
C         -3.31085        2.35209        8.39828
O         -2.66248        1.07593        8.22445
C         -3.48433        0.01248        7.98252
O         -4.70191        0.06806        7.87110
C         -2.65617       -1.25888        7.84180
C         -2.41144       -1.63868        6.38976
C         -2.23851       -3.15565        6.44084
C         -3.09782       -3.54932        7.61597
O         -3.47696       -4.66928        7.89448
N         -3.33290       -2.41882        8.36513
H          0.52902        0.59715       -0.64618
H          0.84221       -1.05874       -1.16447
H          2.18006       -0.04919       -0.58258
H         -0.17361       -1.05205        1.10728
H          1.43520       -1.74508        1.11663
H          1.19155       -0.26121        3.03849
H          2.42238        0.34863        1.95659
H          1.06474        2.20386        2.74812
H          0.86898        2.04116        1.03068
H         -1.31277        2.45400        1.96075
H         -1.31444        0.82599        1.36073
H         -2.40861        0.83018        3.51943
H         -0.93116       -0.07301        3.67303
H         -1.15262        1.37407        5.61434
H          0.22486        1.89555        4.70510
H         -1.02468        3.86546        5.38242
H         -1.09501        3.75549        3.65828
H         -3.31328        4.33478        4.55733
H         -3.38418        2.81827        3.70967
H         -4.65418        2.59899        5.78924
H         -3.29250        1.53738        5.80577
H         -1.98453        3.30381        7.11715
H         -3.18693        5.13112        8.22184
H         -3.11384        5.28775        6.50885
H         -5.27005        5.99372        7.06803
H         -5.48630        4.47889        6.25938
H         -6.98379        4.66067        8.17792
H         -5.92860        3.31915        8.38218
H         -5.94981        4.38988       10.51332
H         -4.40589        4.80207        9.85888
H         -5.26633        6.83270       10.75939
H         -5.34362        7.02018        9.03035
H         -7.39448        7.86099       10.06212
H         -7.76410        6.51794        9.00567
H         -9.06644        6.33545       11.05255
H         -7.96325        4.98117       10.96654
H         -7.52500        7.52165       12.62405
H         -8.02252        5.93798       13.24933
H         -6.40675        6.14528       12.57363
H         -2.83958        2.81896        9.27110
H         -4.35871        2.21472        8.64836
H         -1.71924       -1.16140        8.40137
H         -1.54048       -1.13516        5.96158
H         -3.27799       -1.38769        5.76348
H         -1.20113       -3.43257        6.65164
H         -2.58310       -3.63580        5.52232
H         -3.88874       -2.44926        9.21154
