18

C          0.95158       -0.11629       -0.00152
C          0.44238        1.29811        0.32256
C          0.96622        2.27977       -0.73853
C         -1.09506        1.29396        0.28495
C          0.95352        1.74517        1.70814
O          0.55131        0.85621        2.74235
H          0.63157       -0.43152       -1.00121
H          0.57231       -0.85446        0.71361
H          2.04628       -0.15670        0.02512
H          0.62799        1.99777       -1.74201
H          0.61411        3.29878       -0.54238
H          2.06177        2.30146       -0.75114
H         -1.51580        0.55837        0.97873
H         -1.49824        2.27709        0.55231
H         -1.46384        1.04498       -0.71675
H          2.04863        1.78029        1.71879
H          0.59277        2.74887        1.96066
H         -0.40799        0.95550        2.86172
