30

O          1.12543        0.23085       -0.08465
C          2.34879        0.13583       -0.00030
C          3.14174       -0.06206       -1.24238
C          4.30890       -0.83289       -1.26032
C          5.02841       -0.97591       -2.44917
C          4.58352       -0.35494       -3.61685
C          3.41189        0.40091       -3.60450
C          2.68697        0.54204       -2.42083
C          3.08485        0.26593        1.32885
C          2.69423        1.59141        1.99713
C          3.34297        1.73740        3.37050
C          3.01926        0.54857        4.27047
C          3.39521       -0.77623        3.61193
C          2.75487       -0.92556        2.23327
H          4.66274       -1.34279       -0.36901
H          5.93484       -1.57645       -2.46779
H          5.14658       -0.46653       -4.54050
H          3.06087        0.87882       -4.51577
H          1.77072        1.12950       -2.41629
H          4.16685        0.29410        1.15593
H          2.99176        2.43212        1.35846
H          1.60376        1.65666        2.10550
H          2.99882        2.66379        3.84388
H          4.43032        1.82276        3.25358
H          1.94703        0.54884        4.50224
H          3.55189        0.65177        5.22253
H          3.08477       -1.60764        4.25476
H          4.48617       -0.83779        3.51490
H          1.66743       -1.02264        2.34854
H          3.09921       -1.85720        1.76847
