24

C          0.87307       -0.17065        0.22233
C          0.37246        1.25863        0.36745
C          0.88323        2.19313       -0.73604
C          0.40111        1.83893       -2.14961
O         -1.02066        1.96662       -2.21407
C          0.97952        2.76698       -3.22727
C          2.50380        2.76782       -3.36355
C          3.09531        1.39126       -3.62405
H          0.44857       -0.65706       -0.66059
H          0.58285       -0.76159        1.09686
H          1.96452       -0.19875        0.14212
H         -0.72219        1.26403        0.40377
H          0.71676        1.64890        1.33298
H          0.54551        3.20805       -0.48990
H          1.97776        2.19914       -0.69717
H          0.64508        0.80278       -2.40232
H         -1.40721        1.25257       -1.67954
H          0.53611        2.49435       -4.19455
H          0.64013        3.79449       -3.04046
H          2.77425        3.42754       -4.19697
H          2.96586        3.20052       -2.46967
H          2.63701        0.92608       -4.50235
H          4.17169        1.47315       -3.80601
H          2.95642        0.72600       -2.76656
