14

O          1.25496        0.59582       -0.04619
C          2.34428        0.04150       -0.06007
C          3.00122       -0.50186       -1.27284
C          4.08069       -1.37479       -1.05314
C          4.75744       -1.94864       -2.13087
C          4.36584       -1.65255       -3.43318
C          3.29971       -0.78013       -3.65804
C          2.61226       -0.19974       -2.58359
Cl         1.33826        0.89348       -2.98468
H          2.89766       -0.10496        0.88326
H          4.39909       -1.62599       -0.04340
H          5.58814       -2.62869       -1.95446
H          4.89021       -2.09756       -4.27594
H          3.00838       -0.55079       -4.68120
