76

C          0.97317        0.18908       -0.03170
C          0.16706        1.12691        0.48083
C         -1.28349        1.05873        0.48275
C         -2.04249        2.08916        0.07034
C         -1.67795        3.41317       -0.48868
C         -3.41052        1.56399        0.26382
C         -4.54770        2.45001       -0.08553
C         -5.82603        2.06319        0.00666
N         -6.29732        0.85017        0.40987
C         -7.65278        0.79042        0.43306
C         -8.44233       -0.23061        0.77931
C         -7.92686       -1.54257        1.21595
N         -6.70807       -1.82192        1.57941
C         -6.74130       -3.14313        1.95795
C         -5.68490       -3.92061        2.22917
C         -4.31182       -3.55174        2.29711
N         -3.84896       -2.34952        1.81230
C         -2.48269       -2.27812        1.95418
C         -1.72457       -1.16748        1.49236
C         -2.16383       -0.02622        0.93993
N         -3.47354        0.35402        0.74353
C         -2.05953       -3.44628        2.57777
C         -0.64423       -3.77870        2.91539
C         -3.22393       -4.24351        2.82203
C         -3.27632       -5.57779        3.51923
C         -3.67378       -5.47046        4.98943
C         -5.12329       -5.10944        5.13995
O         -6.07319       -5.82181        4.85087
O         -5.30503       -3.85057        5.57861
C         -8.13075       -3.58803        1.93691
C         -8.63687       -4.89719        2.48604
C         -9.09277       -4.79198        3.94471
C        -10.42248       -4.10171        4.07624
O        -11.51338       -4.58716        3.84028
O        -10.31364       -2.81152        4.44878
C         -8.88657       -2.65906        1.33443
C        -10.31643       -2.67474        0.94919
C         -8.11499        2.11661       -0.02376
C         -9.58661        2.36598       -0.09375
C         -7.03120        2.89395       -0.30485
C         -6.97985        4.26763       -0.79355
C         -7.94700        5.11261       -1.16909
H          0.58668       -0.71569       -0.49191
H          2.05135        0.31316       -0.00781
H          0.61089        2.02522        0.90593
H         -2.10108        3.53678       -1.49090
H         -2.05269        4.21855        0.15086
H         -0.59562        3.54514       -0.57902
H         -4.29868        3.44634       -0.41603
H         -5.69595        0.10819        0.75892
H         -9.51441       -0.11509        0.75191
H         -5.87424       -4.96879        2.43210
H         -4.42879       -1.62644        1.40047
H         -0.65181       -1.27842        1.61858
H         -0.03520       -3.80488        2.00489
H         -0.22494       -3.02337        3.58814
H         -0.54629       -4.74976        3.40575
H         -3.96257       -6.24424        2.98227
H         -2.29508       -6.06154        3.45936
H         -3.52993       -6.43270        5.49368
H         -3.05405       -4.73833        5.51934
H         -6.24835       -3.64595        5.41850
H         -9.46539       -5.26367        1.86745
H         -7.86831       -5.67285        2.41235
H         -9.21907       -5.79389        4.37236
H         -8.35591       -4.28037        4.57291
H        -11.23808       -2.48605        4.46883
H        -10.40509       -2.88742       -0.12106
H        -10.87956       -3.44605        1.47811
H        -10.81932       -1.72840        1.15811
H        -10.05983        1.65780       -0.78363
H        -10.04057        2.23784        0.89585
H         -9.86956        3.35729       -0.42694
H         -5.97489        4.67459       -0.88082
H         -7.68311        6.10832       -1.51581
H         -9.00123        4.89306       -1.16745
