32

C          1.06832        0.00992       -0.21300
C          0.86592       -0.63550       -1.57530
C          1.14313       -2.11032       -1.52455
C          0.19480       -3.04731       -1.67797
C          0.44076       -4.52815       -1.58258
C         -0.12533       -5.14224       -0.29854
O         -1.56190       -5.15601       -0.32834
C         -2.17778       -4.18879        0.39423
O         -1.66396       -3.28706        1.03423
C         -3.62350       -4.29070        0.15988
C         -4.23297       -3.30162       -0.62095
C         -5.60573       -3.35843       -0.85921
C         -6.36549       -4.39176       -0.30782
C         -5.75838       -5.37033        0.48519
C         -4.38421       -5.31834        0.72039
O         -3.79003       -6.25886        1.51277
H          0.39035       -0.42016        0.53245
H          0.86911        1.08480       -0.26998
H          2.09535       -0.12551        0.14251
H         -0.15711       -0.43968       -1.91757
H          1.53967       -0.17340       -2.30549
H          2.17166       -2.40554       -1.32858
H         -0.83362       -2.74223       -1.85908
H         -0.02006       -5.00386       -2.45646
H          1.51655       -4.73497       -1.62999
H          0.18985       -6.18998       -0.23958
H          0.26687       -4.64433        0.59643
H         -3.63902       -2.49322       -1.04054
H         -6.08337       -2.59618       -1.47017
H         -7.43687       -4.43094       -0.49168
H         -6.37265       -6.15796        0.91135
H         -4.46783       -6.86458        1.85511
