44

C          1.15414       -0.37116        0.21170
C          0.91225        1.04333        0.71491
C          1.45489        2.12497       -0.22307
C          0.85000        2.14391       -1.63200
C         -0.67586        2.27880       -1.69584
C         -1.25360        3.51421       -0.99741
C         -0.86029        4.85431       -1.62781
C         -1.52788        5.14985       -2.97670
C         -3.03835        5.37298       -2.89857
O         -3.32239        6.51468       -2.07358
C         -3.92834        6.26413       -0.89100
O         -4.27425        5.19040       -0.43130
C         -4.12967        7.54310       -0.20048
C         -5.35467        8.19833       -0.32279
C         -5.56330        9.39375        0.36886
C         -4.57892        9.90863        1.22006
N         -4.75752       11.15931        1.82289
C         -3.33446        9.27058        1.27985
C         -3.11108        8.07531        0.59090
H          0.59655       -0.57107       -0.70792
H          0.82696       -1.09802        0.96211
H          2.21754       -0.54160        0.01646
H         -0.15864        1.19036        0.89214
H          1.40327        1.15414        1.68938
H          1.30947        3.10360        0.24948
H          2.54088        1.99820       -0.31696
H          1.31294        2.96180       -2.19645
H          1.13805        1.22649       -2.15934
H         -0.98346        2.27202       -2.74783
H         -1.13171        1.38634       -1.25073
H         -2.34362        3.41673       -0.97686
H         -0.94244        3.51921        0.05315
H         -1.10532        5.65654       -0.92231
H          0.22660        4.90024       -1.75632
H         -1.06934        6.06385       -3.37503
H         -1.31361        4.34963       -3.69279
H         -3.41704        5.60689       -3.89986
H         -3.56451        4.47045       -2.57037
H         -6.13835        7.78896       -0.95409
H         -6.50810        9.91685        0.24600
H         -4.17559       11.30525        2.64224
H         -5.73004       11.39127        2.00147
H         -2.53030        9.69698        1.87425
H         -2.15220        7.57112        0.67201
