13

C          1.04945       -0.02254       -0.06265
C          0.38846        0.94772        0.59247
C         -1.13154        0.94772        0.59247
N         -2.39250        0.94772        0.59247
C          1.15276        1.99881        1.30217
O          2.37516        2.04616        1.33414
O          0.31905        2.88425        1.90002
C          0.99668        3.92768        2.60455
H          0.52297       -0.80988       -0.59427
H          2.13588       -0.05480       -0.08444
H          1.61072        3.51032        3.40921
H          1.61072        4.51806        1.91671
H          0.24370        4.58443        3.04799
