23

C          1.10078        0.05476       -0.11933
C          0.30696        0.57746       -1.31994
N          0.78659       -0.12276       -2.54321
C         -0.11492       -0.62028       -3.49359
C         -0.07515       -2.00165       -3.76031
C         -0.98555       -2.60652       -4.62964
C         -1.95951       -1.83921       -5.25755
C         -2.00575       -0.46413       -5.03335
C         -1.08644        0.14489       -4.16823
Cl        -1.16385        1.86750       -4.02236
C         -1.18095        0.45704       -0.96983
O         -1.90835        1.37813       -0.63468
O         -1.66301       -0.80358       -0.96715
H          0.94154       -1.02197        0.01764
H          0.79512        0.55309        0.80694
H          2.17541        0.21303       -0.25811
H          0.52579        1.64354       -1.44588
H          1.51449       -0.79763       -2.32894
H          0.66261       -2.63067       -3.26733
H         -0.93460       -3.67810       -4.80510
H         -2.67506       -2.30853       -5.92760
H         -2.75758        0.13383       -5.54181
H         -2.61431       -0.68100       -0.76805
