57

C          1.20295        0.08129       -1.43628
O          0.04116        0.86745       -1.19284
N          0.42584        1.99427       -0.40087
C         -0.29570        1.88918        0.85700
C          0.33753        3.17719       -1.13158
O         -0.06964        3.24911       -2.29345
N          0.70883        4.34273       -0.50324
C          1.59952        4.55905        0.56493
C          1.58061        5.81040        1.19509
C          2.42512        6.07374        2.28180
C          3.32085        5.09874        2.71851
O          4.12999        5.42049        3.79581
C          5.38489        4.85551        3.76139
C          5.66597        3.77246        4.59174
C          6.84748        3.05354        4.39782
C          7.75443        3.41458        3.38018
C          7.47805        4.56471        2.62476
C          6.31696        5.30451        2.83086
O          8.27747        5.01985        1.61468
C          8.98026        3.99488        0.90672
C          8.01501        3.18075        0.03021
O          9.98221        4.56745        0.03365
C          9.57073        5.74396       -0.64917
C          9.78970        3.14988        1.90092
C          8.97470        2.55437        3.07248
C          8.54543        1.10957        2.72509
C          9.89976        2.48070        4.30853
C          3.35703        3.85626        2.07502
C          2.51411        3.59642        0.99476
H          0.90915       -0.78666       -2.03206
H          1.62763       -0.27501       -0.49200
H          1.94897        0.65635       -1.99369
H          0.15206        1.08322        1.44483
H         -0.25792        2.81588        1.43235
H         -1.34705        1.65768        0.65606
H          0.37034        5.16182       -0.99253
H          0.88961        6.58439        0.86892
H          2.38877        7.04040        2.77828
H          4.94097        3.44744        5.33352
H          7.03311        2.17997        5.02073
H          6.10158        6.16670        2.20486
H          7.48673        3.83062       -0.67605
H          8.55035        2.42734       -0.55666
H          7.22739        2.69042        0.60647
H          8.65110        5.58753       -1.21772
H          9.44334        6.57174        0.05497
H         10.36212        6.02014       -1.35148
H         10.35474        2.37056        1.37220
H         10.56332        3.81407        2.31605
H          7.82552        1.07372        1.90305
H          9.40829        0.49778        2.43754
H          8.07642        0.60905        3.58008
H         10.81046        1.91219        4.08555
H         10.20226        3.48144        4.63866
H          9.41245        1.99085        5.15893
H          4.04373        3.07446        2.38745
H          2.61904        2.64055        0.49056
