30

C          1.08069       -0.08394        0.19415
C          0.59253        0.12433       -1.23237
C          0.91209       -1.03866       -2.19589
C          0.42606       -2.41462       -1.68916
C         -1.08286       -2.54647       -1.52440
C          0.36686       -0.76525       -3.61329
O          1.00309        0.36322       -4.23492
C          0.33449        1.53857       -4.19731
O         -0.68431        1.74180       -3.55513
N          0.88028        2.57249       -4.93759
S          2.16741        2.53267       -5.93149
N          1.46076        3.38715       -7.18455
O          3.21180        3.37394       -5.41130
O          2.39559        1.22191       -6.47713
H          0.53774       -0.89140        0.69330
H          0.91895        0.82788        0.77879
H          2.15030       -0.31366        0.21468
H         -0.48609        0.31795       -1.21390
H          1.07078        1.03737       -1.60513
H          2.00733       -1.08931       -2.27183
H          0.76544       -3.19021       -2.38755
H          0.90829       -2.64894       -0.73336
H         -1.59980       -2.45726       -2.48441
H         -1.32772       -3.53101       -1.11252
H         -1.48484       -1.79227       -0.84240
H          0.59037       -1.62400       -4.25734
H         -0.72311       -0.65156       -3.61770
H          0.53788        3.49908       -4.71788
H          2.19852        3.73244       -7.80064
H          0.84023        2.75929       -7.69805
