22

C          1.16272        0.04080       -0.09443
O          0.38434        1.18861        0.23569
C         -0.74620        1.40232       -0.50672
C         -1.05239        2.75452       -0.72647
C         -2.19953        3.12488       -1.44101
C         -2.60776        4.54498       -1.68264
C         -1.73994        5.69818       -1.24832
O         -3.68321        4.77136       -2.24118
C         -3.03550        2.11702       -1.94552
C         -2.74274        0.77118       -1.72238
C         -1.61877        0.42123       -0.98165
O         -1.47744       -0.90536       -0.69588
H          1.08761       -0.24531       -1.14865
H          0.88401       -0.79135        0.55893
H          2.21121        0.27633        0.11374
H         -0.37156        3.49109       -0.31453
H         -1.54696        6.33294       -2.11859
H         -2.27566        6.27510       -0.48879
H         -0.77552        5.40486       -0.84038
H         -3.93774        2.37485       -2.49876
H         -3.41476        0.00077       -2.09142
H         -1.17208       -0.95258        0.22631
