20

C          1.08558       -0.24954       -0.06062
C          0.92573        1.13784       -0.65834
O          0.70632        1.00240       -2.06541
C          1.22521        1.99191       -2.85594
C          1.76779        1.56034       -4.06978
C          2.31302        2.47779       -4.97216
C          2.32279        3.83727       -4.66304
C          1.76704        4.27918       -3.46350
C          1.19660        3.36243       -2.58208
O          0.55468        3.88639       -1.49638
H          0.27246       -0.91034       -0.37857
H          1.09601       -0.20089        1.03238
H          2.02168       -0.70588       -0.39810
H          0.04139        1.60444       -0.21266
H          1.81576        1.73413       -0.42556
H          1.76813        0.50111       -4.31523
H          2.72710        2.13183       -5.91579
H          2.74360        4.55388       -5.36344
H          1.74495        5.34050       -3.23126
H         -0.22265        3.31989       -1.35252
