25

O          1.12886       -0.02249       -0.16194
C          2.34909       -0.11135       -0.08343
O          3.10291        0.75673        0.71113
C          4.50298        0.97627        0.66667
C          5.16517        1.01247        1.89225
C          6.54587        1.19817        1.91362
C          7.24677        1.35466        0.71587
C          6.56563        1.35259       -0.50401
C          5.18192        1.18186       -0.53253
C          3.07976       -1.13884       -0.85957
C          4.04752       -1.96053       -0.27123
C          4.74436       -2.87918       -1.05762
C          4.45449       -2.99754       -2.41794
C          3.45737       -2.21045       -2.99495
C          2.76359       -1.28493       -2.21582
H          4.61261        0.89041        2.81919
H          7.07690        1.22009        2.86173
H          8.32574        1.48841        0.73344
H          7.11554        1.48484       -1.43244
H          4.65801        1.19907       -1.48263
H          4.27635       -1.88147        0.78831
H          5.51681       -3.50067       -0.61101
H          5.00242       -3.71124       -3.02883
H          3.22230       -2.31649       -4.05119
H          1.98482       -0.67251       -2.66599
