21

O          1.28117       -0.41043        0.03589
C          2.43161        0.00447        0.05226
O          3.25935       -0.19166       -1.01068
C          3.07239        0.71554        1.14335
S          4.53489        1.58720        0.91023
C          4.60053        2.12234        2.54671
C          5.70462        2.96422        2.94377
O          6.62034        3.38173        2.24728
O          5.67014        3.29328        4.25243
C          3.53236        1.61405        3.25342
C          2.64908        0.84188        2.44712
O          1.52241        0.24951        2.91377
C          1.15290        0.78212        4.19565
C          2.36790        0.92306        5.11493
O          3.33272        1.84207        4.57571
H          4.15075        0.17477       -0.85393
H          6.46247        3.85454        4.37104
H          0.42222        0.09881        4.63974
H          0.66393        1.75137        4.03784
H          2.05888        1.30338        6.09354
H          2.86233       -0.04496        5.26500
