50

C          0.79536        0.17762       -0.12863
C          0.49307        1.64352        0.09078
C         -0.21216        2.27536       -1.01898
C         -1.07829        3.29756       -0.92479
C         -1.88886        3.75944       -2.04903
C         -2.89445        2.99303       -2.54216
C         -3.31843        1.65321       -1.98244
C         -3.74959        3.42172       -3.71448
C         -3.22425        4.63306       -4.47201
C         -2.71353        5.68749       -3.50201
C         -1.55857        5.15865       -2.60795
C         -1.35144        6.20457       -1.48870
C         -0.26064        5.08433       -3.44314
C          0.89871        2.30576        1.19553
C          1.53705        1.66259        2.33021
C          2.27384        2.29206        3.25392
C          2.95201        1.69412        4.39966
C          3.17807        2.66396        5.54519
C          3.46427        0.45611        4.56924
C          3.56762       -0.79264        3.79511
O          4.01836       -1.82254        4.26575
O          3.15866       -0.75607        2.52658
H          0.39263       -0.19999       -1.07469
H          0.36009       -0.43783        0.66524
H          1.87924        0.01503       -0.15515
H         -0.08275        1.80093       -1.99190
H         -1.25338        3.80168        0.02162
H         -4.39209        1.66259       -1.76502
H         -3.12182        0.86252       -2.71411
H         -2.81707        1.37893       -1.05147
H         -3.85345        2.59039       -4.42256
H         -4.75597        3.64509       -3.33704
H         -4.02601        5.05128       -5.09176
H         -2.42809        4.32741       -5.16030
H         -3.55242        6.01632       -2.87267
H         -2.38835        6.57100       -4.06577
H         -0.45032        6.00103       -0.89918
H         -1.23736        7.21120       -1.90840
H         -2.20546        6.22617       -0.80189
H         -0.03936        6.05034       -3.91233
H          0.60373        4.82131       -2.82268
H         -0.32784        4.33646       -4.24065
H          0.73914        3.37869        1.27894
H          1.38171        0.59516        2.41169
H          2.37654        3.37446        3.16902
H          2.82639        2.23435        6.49063
H          4.24775        2.88534        5.64225
H          2.65447        3.61623        5.41248
H          3.95267        0.27554        5.52899
H          3.28791       -1.67638        2.21800
