12

C          1.04665        0.06660       -0.05256
C          0.36676        1.13798       -0.49057
C         -1.13314        1.17916       -0.50741
C          1.08315        2.35911       -0.98981
H          0.53833       -0.82149        0.31053
H          2.13259        0.05091       -0.04614
H         -1.49720        2.00157        0.11688
H         -1.49720        1.32865       -1.52905
H         -1.57447        0.25143       -0.12812
H          1.71125        2.78719       -0.20174
H          1.71125        2.11247       -1.85208
H          0.37664        3.13357       -1.30644
