27

C         -2.49752        1.76299        0.01099
C         -1.22618        0.95685        0.00301
C         -0.00494        1.64300        0.00058
C          1.22444        0.96937       -0.00670
C          2.48496        1.79357       -0.01628
C          1.24346       -0.44160       -0.00682
C          2.55463       -1.19174       -0.01056
C          0.01397       -1.15547        0.00028
C         -0.01102       -2.66980        0.01081
C         -1.22484       -0.45232       -0.00650
C         -2.52195       -1.22911       -0.02319
H         -3.07255        1.57526       -0.90129
H         -3.10125        1.51371        0.88955
H         -2.29496        2.83869        0.05406
H         -0.01088        2.73227        0.00307
H          3.08930        1.57640        0.87020
H          3.06506        1.59005       -0.92210
H          2.26757        2.86719       -0.00492
H          2.64592       -1.79212        0.90067
H          2.61430       -1.84062       -0.89071
H          3.42983       -0.53910       -0.04677
H         -0.55625       -3.03041        0.88930
H         -0.49244       -3.04412       -0.89835
H          0.97996       -3.12581        0.05496
H         -2.56446       -1.87201       -0.90851
H         -2.60728       -1.84204        0.87971
H         -3.40823       -0.59147       -0.05928
