22

Cl         3.42234       -0.09701        0.23362
C          1.73743        0.21771        0.09463
C          0.84629       -0.84095       -0.03549
C         -0.51894       -0.58074       -0.17197
Cl        -1.56775       -1.94757       -0.33419
C         -0.99553        0.74178       -0.17955
Cl        -2.68776        1.06082       -0.42619
C         -0.09464        1.82166       -0.01808
C         -0.52819        3.23526        0.01013
C         -0.25626        4.04328       -1.10669
C         -0.64772        5.38458       -1.14392
Cl        -0.23453        6.28053       -2.56550
C         -1.33651        5.95292       -0.06449
Cl        -1.82883        7.61910       -0.13307
C         -1.61331        5.16633        1.06866
Cl        -2.46758        5.85707        2.42086
C         -1.19641        3.81860        1.11137
Cl        -1.46359        2.85969        2.54279
C          1.27825        1.53353        0.10918
H          1.21239       -1.86455       -0.03700
H          0.26781        3.61950       -1.96399
H          1.99692        2.34473        0.22341
