16

C          1.01866       -0.08661        0.02784
C          0.52242        0.24559       -1.34158
C         -0.25031       -0.56802       -2.07967
C         -0.74524       -0.23450       -3.45720
C         -0.25690       -1.24236       -4.48843
O         -2.16747       -0.24141       -3.43666
H          0.68163       -1.07262        0.36281
H          0.66088        0.65854        0.74481
H          2.11285       -0.07797        0.03924
H          0.81747        1.21575       -1.73645
H         -0.54268       -1.53363       -1.67394
H         -0.42911        0.77030       -3.75783
H         -0.60923       -2.25389       -4.25542
H         -0.65420       -0.99450       -5.47883
H          0.83622       -1.25872       -4.54594
H         -2.45413       -1.10536       -3.09838
