23

O          1.40784       -0.82555        1.09367
C          2.21937       -0.11736        0.51418
C          2.48535        1.32485        0.85958
C          2.55435        1.53086        2.36012
Cl         4.07673        0.88513        3.02634
O          2.83893       -0.49360       -0.63340
C          4.19300       -0.93274       -0.45756
C          4.95960       -0.69753       -1.75753
C          5.07671        0.78180       -2.15180
C          5.98059        1.62106       -1.25254
Cl         7.68017        1.11195       -1.36014
H          3.40546        1.67393        0.38294
H          1.66115        1.91026        0.43699
H          2.53873        2.59993        2.59152
H          1.72563        1.05126        2.88858
H          4.67930       -0.43113        0.38404
H          4.16904       -2.00723       -0.24385
H          5.95059       -1.15752       -1.68634
H          4.42729       -1.21104       -2.56823
H          5.44753        0.83906       -3.18293
H          4.07775        1.23432       -2.16408
H          5.93725        2.67135       -1.55674
H          5.68341        1.56361       -0.20289
