19

C          0.92936       -0.07033       -0.00078
N          0.46696        0.01320       -1.37145
C          0.39418        1.28699       -1.94982
O          0.68074        2.32974       -1.36603
N         -0.02011        1.33240       -3.26245
C         -0.30787        0.21872       -3.95804
N         -0.70308        0.11478       -5.25535
C         -0.86721       -1.25312       -5.56476
O         -1.20185       -1.73104       -6.63048
N         -0.55301       -1.93180       -4.37523
C         -0.21978       -1.00080       -3.43405
C          0.20718       -1.18442       -2.04532
O          0.32133       -2.31140       -1.57248
H          0.59436       -0.99480        0.47788
H          0.56786        0.78247        0.58160
H          2.02388       -0.05135       -0.00897
H         -0.07763        2.24804       -3.68689
H         -0.85094        0.85528       -5.92181
H         -0.55885       -2.93306       -4.24726
