12

O         -3.88550        0.22355       -0.01595
C         -2.66036        0.20458       -0.00728
N         -1.91733        1.35336        0.00892
C         -0.54843        1.37090        0.01891
C          0.17087        0.24132        0.01453
Br         2.03021        0.22907        0.02716
C         -0.57462       -1.05333       -0.00095
O         -0.01639       -2.14616       -0.00282
N         -1.94329       -0.95764       -0.01277
H         -2.44601        2.21937        0.01297
H         -0.08545        2.35292        0.03049
H         -2.46532       -1.82002       -0.02336
