40

C          1.00530        0.16448       -0.18554
C          0.48459       -1.26422       -0.27218
C          0.84190       -2.17548        0.87959
C          0.92017       -3.55425        0.64459
C          1.20547       -4.44922        1.68030
C          1.39354       -3.99670        2.99342
C          1.70663       -4.94927        4.15524
C          0.47928       -5.77682        4.56293
C         -0.14528       -5.53321        5.79740
C         -1.24263       -6.29615        6.21137
C         -1.75288       -7.31247        5.39718
C         -2.93102       -8.14149        5.84163
C         -2.54265       -9.18412        6.87947
C         -1.13809       -7.55898        4.16642
C         -0.03361       -6.80569        3.75791
C          2.96768       -5.82294        3.90696
Cl         4.41816       -4.82318        3.54554
Cl         3.37736       -6.83445        5.33704
C          1.30264       -2.61572        3.22977
C          1.03150       -1.71907        2.18772
H          0.54470        0.71234        0.64239
H          0.76626        0.70474       -1.10781
H          2.09173        0.18476       -0.05183
H         -0.60799       -1.24315       -0.36485
H          0.87713       -1.69932       -1.20037
H          0.75663       -3.94654       -0.35735
H          1.26990       -5.50369        1.43048
H          1.95456       -4.31308        5.01891
H          0.22608       -4.75566        6.46178
H         -1.69508       -6.09308        7.17991
H         -3.70698       -7.48080        6.24661
H         -3.38123       -8.64404        4.97664
H         -2.17067       -8.71475        7.79630
H         -3.41115       -9.79624        7.14313
H         -1.75970       -9.84980        6.50060
H         -1.51259       -8.34486        3.51414
H          0.41326       -7.04867        2.79890
H          2.83693       -6.50716        3.06395
H          1.44883       -2.21604        4.23140
H          0.96794       -0.65992        2.42413
