23

C          1.11485        0.07471        0.13077
C          0.42581        1.44556        0.04812
C          0.92440        2.23161       -1.17918
C          0.39628        1.69736       -2.48671
O         -0.02842        2.42244       -3.38279
C         -1.09470        1.42004        0.15322
C         -1.79211        2.63686        0.26337
C         -3.18471        2.66654        0.36601
C         -3.90761        1.47861        0.37281
C         -3.23703        0.26314        0.27568
C         -1.84315        0.23320        0.16554
H          0.83306       -0.58241       -0.69836
H          0.85933       -0.43647        1.06574
H          2.20433        0.18784        0.10884
H          0.77397        1.99406        0.93586
H          0.63587        3.28653       -1.10632
H          2.01895        2.20127       -1.22817
H          0.50175        0.61293       -2.65189
H         -1.25479        3.58319        0.26973
H         -3.70277        3.61917        0.44044
H         -4.99088        1.49991        0.45461
H         -3.79972       -0.66700        0.28601
H         -1.36565       -0.74013        0.09479
