66

C          1.78700        0.41384        0.65161
C          1.36299        1.70870       -0.02745
C          0.79519        1.49446       -1.43351
C         -0.55341        0.75752       -1.50180
N         -1.71243        1.66619       -1.50450
C         -2.11448        2.19274       -2.82246
C         -2.70873        1.13153       -3.78968
N         -3.67930        0.23310       -3.15381
C         -5.10716        0.47888       -3.37239
C         -5.67174       -0.33683       -4.54328
C         -7.12894       -0.75399       -4.32797
C         -8.08393        0.42007       -4.18909
C         -3.24329       -1.02783       -2.73861
O         -2.21229       -1.55285       -3.15264
N         -4.10377       -1.67400       -1.85740
C         -4.00219       -3.12902       -1.78914
C         -5.17867       -3.70640       -0.99809
O         -5.24912       -3.13433        0.31861
C         -5.39196       -1.70657        0.24789
C         -4.23776       -1.07023       -0.52796
C         -2.18471        2.08048       -0.26485
O         -1.75547        1.60496        0.78612
N         -3.08562        3.13935       -0.23601
C         -4.45395        2.92042       -0.70228
C         -5.19620        4.25032       -0.84562
O         -5.22144        4.95061        0.40664
C         -3.88450        5.20926        0.86759
C         -3.08131        3.91299        1.01129
H          0.93594       -0.24569        0.84019
H          2.25831        0.63022        1.61557
H          2.51348       -0.12944        0.03859
H          0.65219        2.24731        0.60531
H          2.24821        2.35126       -0.11061
H          0.71776        2.46908       -1.93029
H          1.53118        0.91415       -2.00526
H         -0.56776        0.18380       -2.43128
H         -0.66015        0.03170       -0.68974
H         -2.81832        3.01896       -2.71352
H         -1.22665        2.63682       -3.28871
H         -3.18367        1.63358       -4.64087
H         -1.88767        0.54008       -4.20924
H         -5.64695        0.23280       -2.45386
H         -5.26380        1.54846       -3.55280
H         -5.57813        0.24380       -5.46903
H         -5.08678       -1.25139       -4.69849
H         -7.44760       -1.37192       -5.17565
H         -7.20040       -1.38594       -3.43395
H         -9.11025        0.05617       -4.07610
H         -7.84962        1.02798       -3.31020
H         -8.04648        1.06209       -5.07416
H         -3.05135       -3.37786       -1.30202
H         -3.98557       -3.53646       -2.80601
H         -6.12883       -3.51747       -1.51277
H         -5.06367       -4.78901       -0.88701
H         -5.41316       -1.32059        1.27216
H         -6.35519       -1.47210       -0.22095
H         -3.28920       -1.23982       -0.00201
H         -4.37625        0.00970       -0.60412
H         -4.95412        2.28864        0.04261
H         -4.46658        2.37667       -1.63927
H         -4.72460        4.89044       -1.60106
H         -6.23224        4.07332       -1.15161
H         -3.95880        5.71250        1.83716
H         -3.39886        5.89647        0.16465
H         -3.52519        3.28302        1.79341
H         -2.04791        4.13587        1.29950
