32

N          2.18080        0.44039        1.60355
C          0.90157        0.22759        1.08213
C          0.41872       -1.06959        0.91503
C         -0.79067       -1.30283        0.25130
C         -1.53288       -0.24389       -0.28976
N         -2.67020       -0.56191       -1.07755
C         -3.56626        0.34620       -1.68902
C         -4.77762        0.61920       -1.03130
C         -5.70300        1.52971       -1.55575
C         -5.46085        2.17417       -2.76648
N         -6.32898        3.16780       -3.22582
C         -4.22869        1.97644       -3.38517
C         -3.29607        1.05960       -2.86469
S         -1.83237        0.79940       -3.83391
O         -2.22116        0.87418       -5.22819
O         -0.80759        1.66547       -3.29407
O         -1.36761       -0.72178       -3.56159
C         -1.01831        1.04776       -0.16965
C          0.19429        1.27651        0.49415
H          2.48903       -0.26956        2.25974
H          2.34015        1.38237        1.94708
H          0.99110       -1.91721        1.28295
H         -1.12541       -2.33060        0.12958
H         -3.18525       -1.31426       -0.61483
H         -5.00946        0.13621       -0.08428
H         -6.61754        1.73137       -1.00294
H         -7.29664        3.03768       -2.94648
H         -6.24444        3.36582       -4.21929
H         -3.99048        2.52934       -4.29267
H         -1.03478       -0.77637       -2.64040
H         -1.52867        1.90169       -0.60737
H          0.58776        2.28970        0.52733
