19

N          2.33516       -0.03113       -0.19472
C          0.94860        0.01322       -0.00969
C          0.19728       -1.16685       -0.03700
C         -1.19931       -1.13357        0.02558
C         -1.86363        0.08914        0.06918
C         -1.11917        1.26977        0.02272
S         -1.95992        2.82138        0.03302
N         -2.79158        2.78765       -1.42595
O         -2.96395        2.79897        1.07070
O         -1.00127        3.89396       -0.09685
C          0.27789        1.23682       -0.03137
H          2.76754       -0.88764        0.13773
H          2.82200        0.79613        0.13802
H          0.69798       -2.12966       -0.10485
H         -1.76407       -2.06243        0.02601
H         -2.94931        0.11821        0.11692
H         -3.79459        2.85579       -1.25309
H         -2.42847        3.51172       -2.04635
H          0.84357        2.16349       -0.08930
