54

C          1.98006       -2.94483       -0.11252
C          0.96236       -2.88792       -0.98277
C         -0.47470       -2.76362       -0.56996
C         -1.29081       -1.48789       -0.87528
O         -2.65595       -1.86684       -0.52275
C         -1.43239       -0.98474       -2.31778
C         -2.13180        0.39059       -2.11345
C         -1.23990        0.98833       -1.04194
C         -1.50366        2.24315       -0.22135
C         -2.11374        3.46343       -0.91143
C         -2.40726        4.53408        0.15831
C         -1.20764        4.87678        1.02461
C         -0.94767        6.14050        1.39227
C          0.17717        6.54468        2.30564
C          0.82875        5.36739        3.02394
C          1.00701        4.18945        2.08017
C         -0.34727        3.71485        1.50932
C         -0.12968        2.65006        0.40458
C          0.74893        1.46748        0.92557
C          0.56414        0.08238        0.26981
C         -0.91112       -0.19619       -0.05977
C         -1.70522       -0.22906        1.27914
H          1.82530       -2.82857        0.95825
H          3.00133       -3.10307       -0.44452
H          1.16491       -3.04234       -2.03949
H         -0.99657       -3.62311       -1.01449
H         -0.55441       -2.95152        0.51148
H         -2.93890       -2.57374       -1.12811
H         -0.45293       -0.85454       -2.79388
H         -2.04509       -1.63711       -2.94799
H         -2.12657        0.97486       -3.03936
H         -3.16725        0.27984       -1.77688
H         -0.33963        1.23204       -1.63446
H         -2.21662        2.00143        0.57279
H         -1.44007        3.86706       -1.67605
H         -3.05162        3.19242       -1.41004
H         -2.80836        5.43063       -0.32912
H         -3.20049        4.16121        0.82119
H         -1.58758        6.95216        1.04748
H          0.93011        7.07210        1.70884
H         -0.19273        7.25247        3.05558
H          1.80059        5.67055        3.43065
H          0.21105        5.05888        3.87705
H          1.68304        4.47378        1.26303
H          1.49705        3.37758        2.62952
H         -0.90580        3.23744        2.32801
H          0.45490        3.11980       -0.40311
H          0.58527        1.34298        2.00231
H          1.80593        1.74853        0.82460
H          1.17905        0.03519       -0.63906
H          0.95858       -0.66546        0.96137
H         -1.44872        0.57953        1.96822
H         -2.78596       -0.16037        1.11401
H         -1.49883       -1.15861        1.82105
