41

C          0.68346       -0.04974       -0.18873
C          0.58966       -1.01860       -1.35658
N          1.16089       -2.35237       -1.11875
C          0.26982       -3.43077       -0.64532
C          0.06166       -4.52756       -1.69674
C          0.94971       -5.67927       -1.47961
N          1.63432       -6.60255       -1.32780
C          2.52245       -2.53780       -0.91615
C          3.23631       -3.41640       -1.74149
C          4.57713       -3.73615       -1.49478
C          5.26611       -3.14106       -0.43990
N          6.60760       -3.50036       -0.20278
N          7.33047       -2.48108       -0.16686
C          8.69194       -2.83227       -0.07098
C          9.38763       -2.69203        1.14568
Br         8.49126       -2.17276        2.74163
C         10.76944       -2.90752        1.22502
C         11.47294       -3.27058        0.07188
N         12.93083       -3.43676        0.12779
O         13.49519       -3.19733        1.20353
O         13.50798       -3.79422       -0.90789
C         10.80615       -3.44438       -1.14443
C          9.42714       -3.21818       -1.21005
Br         8.60245       -3.40916       -2.91591
C          4.57866       -2.23192        0.36783
C          3.22568       -1.94651        0.13787
H          0.45626       -0.52914        0.76828
H         -0.01696        0.78071       -0.32818
H          1.68107        0.39835       -0.13219
H         -0.47200       -1.13183       -1.61165
H          1.05787       -0.57322       -2.24184
H          0.62054       -3.83887        0.31159
H         -0.71643       -2.99669       -0.43531
H         -0.97001       -4.89306       -1.63075
H          0.19139       -4.13391       -2.71182
H          2.74933       -3.88029       -2.59448
H          5.07936       -4.45898       -2.13229
H         11.28645       -2.77302        2.17399
H         11.34961       -3.72908       -2.04375
H          5.09087       -1.75394        1.19848
H          2.73159       -1.28254        0.83741
