58

C          0.81447        0.86316        0.05174
C          0.78347       -0.11632        1.21551
O          0.99325        0.62166        2.41542
C         -0.56730       -0.81291        1.31346
C         -0.54704       -2.09632        2.17959
O         -0.61399       -2.36813        3.35648
N         -0.61473       -2.89635        1.06380
C         -1.60389       -3.85810        0.99329
C         -1.40145       -5.10820        1.75689
O         -0.33966       -5.69713        1.86937
O         -2.51107       -5.54740        2.36999
C         -2.63273       -3.47917        0.21446
S         -4.09179       -4.32279       -0.11183
C         -3.64856       -5.72330       -1.18558
C         -3.85847       -7.06989       -0.50247
N         -3.27520       -8.04527       -1.43584
C         -2.10028       -7.36009       -2.04918
C         -1.91455       -7.76915       -3.53099
O         -0.80026       -7.89604       -4.03950
N         -3.03905       -8.07272       -4.27318
C         -4.04744       -7.13048       -4.56855
C         -5.35410       -7.59744       -4.71530
C         -6.38669       -6.70303       -5.00038
C         -6.10871       -5.34475       -5.16307
C         -4.79196       -4.88100       -5.06194
C         -4.53399       -3.43443       -5.25376
O         -5.36034       -2.59551       -5.55795
O         -3.24879       -3.10246       -5.03643
C         -3.75753       -5.78247       -4.78447
C         -2.24932       -5.86184       -1.77433
C         -2.44660       -2.03683       -0.22371
C         -2.66156       -1.76304       -1.70770
C         -0.97569       -1.77822        0.15563
H          0.02121        1.61267        0.14752
H          0.69251        0.35583       -0.90938
H          1.76517        1.40741        0.03614
H          1.59636       -0.84438        1.11140
H          1.92626        0.89825        2.44051
H         -1.37344       -0.12413        1.59709
H         -2.20070       -6.32145        2.88366
H         -4.36165       -5.65935       -2.01476
H         -3.32967       -7.13945        0.45325
H         -4.91635       -7.29093       -0.32689
H         -3.95177       -8.23688       -2.17785
H         -1.20923       -7.73210       -1.52641
H         -2.74911       -8.55600       -5.12074
H         -5.58274       -8.65297       -4.58319
H         -7.40924       -7.06267       -5.09202
H         -6.92008       -4.65126       -5.37841
H         -3.22602       -2.13803       -5.21289
H         -2.72895       -5.43281       -4.76376
H         -2.10292       -5.22870       -2.65091
H         -1.47638       -5.58846       -1.05226
H         -3.11272       -1.39092        0.36323
H         -3.71032       -1.90281       -1.99000
H         -2.38981       -0.72864       -1.94669
H         -2.04932       -2.41971       -2.33473
H         -0.29335       -1.76758       -0.70481
