22

C          0.95493       -0.01942       -0.10670
C          0.35572       -1.11273        0.39521
C         -1.13248       -1.25964        0.45960
C          1.22705       -2.21020        0.90434
O          2.44737       -2.17626        0.89621
O          0.46415       -3.22166        1.38515
C          1.10692       -4.40384        1.92858
C          1.89916       -5.16275        0.86967
C          1.92567       -4.08994        3.18781
O          1.07483       -3.54973        4.20044
H          0.38081        0.81623       -0.49347
H          2.03799        0.07176       -0.14636
H         -1.46082       -2.12772       -0.12126
H         -1.46413       -1.38234        1.49591
H         -1.64530       -0.38062        0.05387
H          0.26968       -5.04358        2.23401
H          2.76674       -4.59798        0.51722
H          2.26017       -6.11787        1.26431
H          1.27120       -5.36230       -0.00505
H          2.37673       -5.00273        3.58948
H          2.72664       -3.36889        3.00847
H          0.64088       -2.76902        3.81319
