46

O          0.39628        5.10545       -0.81948
C          1.17680        5.24923       -1.74983
C          2.47057        4.46638       -1.73306
C          2.56315        2.98460       -2.14697
C          1.38460        1.99858       -2.07927
C          0.09548        2.35472       -2.81996
C          0.33206        2.99883       -4.17744
C         -0.92301        3.39710       -4.96288
C         -2.14660        3.99730       -4.22502
C         -1.93002        5.14724       -3.27608
C         -2.29220        6.43549       -3.44019
C         -1.91006        7.51067       -2.45605
C         -1.16884        8.78838       -2.90249
C         -0.40930        9.00547       -4.21797
C         -0.31026        7.96290       -5.31326
C          0.47549        6.65989       -5.08928
C          1.53820        6.50139       -3.97807
O          0.91266        6.18104       -2.70344
H          2.76201        4.49457       -0.66995
H          3.26053        5.04018       -2.22527
H          2.99077        2.93743       -3.15484
H          3.34315        2.53954       -1.50711
H          1.74681        1.04942       -2.50531
H          1.14183        1.76295       -1.03538
H         -0.50167        1.44389       -2.95481
H         -0.49142        3.00223       -2.17008
H          0.96054        3.87897       -4.06260
H          0.92540        2.31288       -4.79840
H         -0.60357        4.07807       -5.76167
H         -1.27090        2.50690       -5.49973
H         -2.86404        4.30613       -4.99407
H         -2.62803        3.19089       -3.66091
H         -1.42736        4.89102       -2.34967
H         -2.86093        6.73705       -4.31322
H         -2.83510        7.83643       -1.96012
H         -1.31834        7.07300       -1.64188
H         -1.89336        9.61337       -2.82395
H         -0.44916        9.02346       -2.10327
H         -0.87792        9.88583       -4.68892
H          0.60567        9.35168       -3.98585
H         -1.31919        7.72990       -5.68276
H          0.15542        8.46537       -6.17492
H          0.93555        6.40870       -6.05392
H         -0.27424        5.89837       -4.94487
H          2.10081        7.42971       -3.86125
H          2.22705        5.70011       -4.25918
