19

C          1.10102        0.08319       -0.16000
C          0.52968        1.49940       -0.14409
N          0.88162        2.15681       -1.40679
C         -1.00081        1.53393        0.01350
C         -1.54422        0.87235        1.27799
C         -1.17766        1.61910        2.52790
O         -1.89720        2.38327        3.14880
O          0.07899        1.37366        2.94065
H          0.64965       -0.52340       -0.95301
H          0.93301       -0.42605        0.79367
H          2.18471        0.09986       -0.32389
H          1.00160        2.06559        0.66552
H          0.57541        3.12897       -1.38690
H          1.89585        2.18010       -1.50974
H         -1.33834        2.57917       -0.00796
H         -1.46465        1.04028       -0.85117
H         -2.64030        0.85520        1.22771
H         -1.23714       -0.17359        1.37335
H          0.17372        1.91899        3.75017
