22

C          1.12598       -0.05179       -0.32158
C          0.50284        0.08775        0.85568
C         -0.94886        0.31026        1.01017
O         -1.42251        0.80490        2.02161
O         -1.63719       -0.14367       -0.06328
C         -3.06180        0.03812       -0.03979
C         -3.77823       -1.23590        0.40900
C         -3.58391       -1.60638        1.88457
C         -4.20280       -0.62128        2.87225
O         -5.62093       -0.63551        2.76398
H          0.59113       -0.01547       -1.26565
H          2.20175       -0.18926       -0.36132
H          1.06075        0.08703        1.78565
H         -3.35473        0.91315        0.54990
H         -3.35435        0.25405       -1.07374
H         -4.84864       -1.13895        0.19451
H         -3.40688       -2.07421       -0.19387
H         -4.05088       -2.58731        2.04026
H         -2.51804       -1.72779        2.10296
H         -3.94864       -0.92051        3.89396
H         -3.85126        0.40364        2.73197
H         -5.86152       -0.10452        1.98715
