21

C          0.86134        0.05874       -0.57951
C          0.37382       -1.38379       -0.59444
C          1.02597       -2.28648        0.46113
C          0.46932       -2.19309        1.86390
C         -0.05493       -3.34033        2.48282
C         -0.52463       -3.29475        3.79857
C         -0.47898       -2.09812        4.50634
Br        -1.10868       -2.03194        6.28713
C          0.04212       -0.95138        3.91393
C          0.52599       -1.00501        2.60350
H          0.36087        0.64205        0.19759
H          0.63547        0.54161       -1.53602
H          1.94304        0.11615       -0.42181
H         -0.71894       -1.40793       -0.51168
H          0.62481       -1.79729       -1.57975
H          0.90237       -3.32051        0.11132
H          2.10898       -2.11703        0.49889
H         -0.08906       -4.28752        1.94845
H         -0.91486       -4.19804        4.26013
H          0.08917       -0.01540        4.46340
H          0.96397       -0.10606        2.18015
