88

C         -0.26052        0.38672       -0.41717
O         -0.06971       -1.00369       -0.68346
C          0.51184       -1.20935       -1.90967
C         -0.31261       -1.77100       -2.88260
C          0.19705       -2.08090       -4.14769
C         -0.56811       -2.91776       -5.06788
C         -1.81908       -2.56000       -5.56827
C         -2.51233       -3.44757       -6.39580
C         -1.97888       -4.70608       -6.73719
N         -2.77034       -5.49709       -7.60311
N         -2.27138       -6.61036       -7.87676
C         -3.00178       -7.25496       -8.88093
C         -3.55930       -8.50099       -8.64042
C         -4.41560       -9.07997       -9.58047
C         -4.79360       -8.39850      -10.76518
C         -5.81821       -8.79212      -11.66182
S         -6.57355      -10.39620      -11.74364
O         -7.95707      -10.24704      -11.35398
O         -6.21436      -10.96420      -13.02606
O         -5.89213      -11.36805      -10.65921
C         -6.40029       -7.83372      -12.50403
C         -5.83249       -6.56325      -12.59828
S         -6.96528       -5.20015      -12.21234
O         -8.24578       -5.76148      -11.85148
O         -6.29531       -4.26906      -11.32234
O         -7.14721       -4.39288      -13.59116
C         -4.55930       -6.34469      -12.10056
N         -3.62289       -5.59687      -12.85260
C         -4.14240       -7.15754      -11.03443
C         -3.20743       -6.64829      -10.12177
O         -2.58583       -5.43773      -10.37333
C         -0.70963       -5.06213       -6.23274
O         -0.18093       -6.27050       -6.60227
C          0.96971       -6.74920       -5.92675
C         -0.03020       -4.16986       -5.40933
C          1.52394       -1.74046       -4.44851
C          2.35739       -1.21954       -3.46342
C          1.88144       -1.00422       -2.16425
N          2.83123       -0.54540       -1.23423
N          2.49342       -0.70425       -0.04478
C          3.29710        0.04795        0.83042
C          3.60366       -0.48945        2.07283
C          4.49679        0.16160        2.92921
C          5.16945        1.34735        2.54276
C          6.25511        1.94952        3.22497
S          6.73714        1.62494        4.90102
O          8.01365        0.94869        4.86387
O          6.56380        2.86123        5.63377
O          5.68848        0.60474        5.56856
C          7.12178        2.79841        2.52123
C          6.78497        3.20982        1.23206
S          8.00618        2.78167       -0.04441
O          9.04636        1.98935        0.57318
O          7.31064        2.29038       -1.21786
O          8.65317        4.18007       -0.50308
C          5.49228        3.02601        0.77634
N          4.83842        4.05827        0.06530
C          4.77940        1.93850        1.30684
C          3.80473        1.31586        0.51168
O          3.45503        1.91279       -0.68725
H         -0.50748        0.48739        0.64409
H         -1.09531        0.77137       -1.00888
H          0.63078        0.99237       -0.60946
H         -1.33573       -2.02956       -2.61983
H         -2.26151       -1.59688       -5.32130
H         -3.48690       -3.15493       -6.78466
H         -3.37543       -8.99956       -7.69197
H         -4.86577      -10.02066       -9.28483
H         -6.02381      -12.29042      -10.96423
H         -7.36547       -8.02965      -12.97069
H         -7.13480       -3.44017      -13.35444
H         -2.84727       -5.29343      -12.25366
H         -4.00253       -4.83130      -13.39600
H         -2.19041       -5.16657       -9.51967
H          1.84937       -6.15763       -6.19731
H          0.81730       -6.76988       -4.84297
H          1.14164       -7.77687       -6.25926
H          0.94010       -4.43315       -4.99843
H          1.93498       -1.94849       -5.43564
H          3.40095       -1.02159       -3.70152
H          3.18535       -1.45170        2.36042
H          4.73309       -0.36424        3.84779
H          5.69492        0.76428        6.53601
H          8.11268        3.01888        2.91711
H          8.78198        4.11687       -1.47450
H          4.04917        3.67513       -0.46624
H          5.43284        4.64237       -0.51089
H          3.09354        1.19513       -1.24180
