12

F          0.97596       -0.04042       -0.01927
C          2.32672        0.05401       -0.07320
F          2.78237        0.02065        1.20117
F          2.78237       -1.06057       -0.69194
C          2.78536        1.28406       -0.77573
C          1.98901        2.22715       -1.31436
C          2.44765        3.45720       -2.01688
F          1.99199        3.49055       -3.29125
F          1.99199        4.57178       -1.39814
F          3.79841        3.55163       -2.07082
H          3.86520        1.38658       -0.83428
H          0.90916        2.12463       -1.25581
