28

C          1.12891       -0.01187       -0.27884
C          0.56627       -1.38202       -0.41750
C          1.13967       -2.57122        0.13774
C          0.29865       -3.64492       -0.04957
N          0.54726       -4.89995        0.55793
S         -0.61014       -6.09880        0.67925
O         -1.08611       -6.41883       -0.64874
O         -0.02454       -7.11135        1.53329
C         -1.97536       -5.41239        1.59094
C         -3.18606       -6.10975        1.56181
C         -4.31773       -5.56040        2.16977
C         -4.26977       -4.28847        2.74558
N         -5.39128       -3.76657        3.39997
C         -3.03293       -3.64684        2.85296
C         -1.88450       -4.20226        2.28036
S         -1.01143       -3.14734       -1.01919
N         -0.58734       -1.54202       -1.06713
H          0.71785        0.46969        0.61517
H          0.88989        0.60969       -1.14706
H          2.21819       -0.04618       -0.17524
H          2.06407       -2.60198        0.69783
H          1.37946       -5.05411        1.12153
H         -3.25497       -7.07839        1.07081
H         -5.24639       -6.12542        2.16654
H         -5.38463       -2.75266        3.46540
H         -6.27252       -4.11201        3.03091
H         -2.95709       -2.69471        3.37277
H         -0.94832       -3.66325        2.37438
