29

C          0.89435        0.09185        0.02940
N         -0.01890        0.03926        1.14355
C         -0.82452        1.05477        1.57885
O         -1.61488        0.87827        2.50167
O         -0.61759        2.24014        0.89264
C         -1.44736        3.32017        1.23546
C         -2.40907        3.67407        0.28269
C         -3.20373        4.79903        0.48544
C         -3.02691        5.57115        1.63028
C         -2.05812        5.21725        2.57450
C         -1.24080        4.08580        2.39475
C         -0.19009        3.72728        3.43164
C          0.86193        4.82934        3.58087
C         -0.83353        3.40364        4.78445
H          0.68668        0.93868       -0.62831
H          0.79016       -0.83806       -0.53549
H          1.91303        0.16561        0.41742
H         -0.09953       -0.81250        1.68259
H         -2.53215        3.07865       -0.61715
H         -3.95305        5.07836       -0.25012
H         -3.64061        6.45413        1.79049
H         -1.94380        5.84258        3.45741
H          0.35227        2.83126        3.11317
H          0.43313        5.75943        3.96850
H          1.65007        4.51384        4.27333
H          1.33221        5.05238        2.61682
H         -1.60179        2.62930        4.68211
H         -0.08088        3.03681        5.49045
H         -1.30791        4.28313        5.23350
