35

C          1.37394       -0.20602        0.05160
C          0.96697        1.11815       -0.57400
C          1.34597        1.26695       -2.05238
C          0.80775        0.20764       -3.01995
C         -0.67906       -0.14208       -2.92417
N         -1.57122        0.63669       -3.80490
N         -1.97693        0.10422       -5.02078
C         -2.41389       -1.10320       -5.21624
C         -2.56884       -2.20295       -4.30702
C         -3.03445       -2.34730       -3.00953
C         -2.71143       -3.67315       -2.60174
C         -2.11791       -4.25539       -3.69607
N         -1.49981       -5.52836       -3.89402
O         -1.14398       -5.82333       -5.04281
O         -1.35594       -6.22988       -2.88537
O         -2.06868       -3.40042       -4.74703
C         -1.67926        2.00976       -3.62843
N         -1.55084        2.74339       -2.58798
O         -1.98314        2.70494       -4.73605
H          0.86130       -1.05015       -0.41858
H          1.10815       -0.21005        1.11447
H          2.45339       -0.36393       -0.02691
H         -0.10812        1.25696       -0.43119
H          1.44946        1.92939       -0.01544
H          1.04072        2.25985       -2.39713
H          2.44152        1.25518       -2.12646
H          1.06535        0.49014       -4.04786
H          1.37022       -0.71510       -2.81850
H         -0.70704       -1.19640       -3.19204
H         -1.05628       -0.09660       -1.89876
H         -2.66901       -1.34551       -6.26273
H         -3.48443       -1.56797       -2.40727
H         -2.85828       -4.13008       -1.63201
H         -1.36550        2.15064       -1.78235
H         -2.00551        3.63634       -4.46922
