15

C          0.95533       -0.03922       -0.07262
C          0.43561        1.29129        0.37712
C         -0.59646        1.42641        1.22058
C         -1.04239        2.77862        1.61304
O         -1.99113        2.93633        2.37272
N         -0.33469        3.82040        1.07886
C          0.71993        3.68470        0.22418
S          1.53410        4.99975       -0.38326
N          1.07482        2.40771       -0.10796
H          0.73068       -0.19600       -1.13268
H          0.50888       -0.86320        0.49412
H          2.04062       -0.09553        0.06346
H         -1.14247        0.59162        1.63983
H         -0.62753        4.74964        1.34251
H          1.86034        2.30244       -0.74349
