56

C          1.29607       -0.02233        0.06465
C          0.80457        1.18675        0.88381
C          1.33811        2.44296        0.18372
C         -0.75056        1.16745        1.08666
C         -1.10736       -0.17675        1.74532
O         -1.10312       -0.41044        2.94313
O         -1.38678       -1.12019        0.80435
C         -1.78793       -2.44248        1.26401
C         -1.04021       -2.99102        2.42915
N         -0.46044       -3.47442        3.31543
C         -3.29960       -2.54843        1.41685
C         -4.13718       -1.42773        1.52436
C         -5.51271       -1.58024        1.69530
C         -6.06789       -2.85460        1.78465
C         -5.25681       -3.98529        1.68686
O         -5.91537       -5.19150        1.79520
C         -5.17937       -6.34632        1.89659
C         -5.40051       -7.32816        0.93165
C         -4.68423       -8.52328        0.98270
C         -3.75504       -8.73587        2.00208
C         -3.55965       -7.76569        2.98640
C         -4.28937       -6.57731        2.94876
C         -3.88529       -3.82753        1.46719
C         -1.30333        2.39669        1.83892
C         -1.36374        3.64527        1.19553
C         -1.71842        4.81090        1.89203
C         -2.08849        4.75766        3.23502
O         -2.36243        5.95930        3.82155
C         -2.75089        5.95634        5.19155
F         -3.90967        5.26918        5.33798
F         -1.80197        5.36062        5.95453
C         -2.13805        3.51848        3.85523
C         -1.74250        2.36330        3.17092
H          0.77503       -0.08574       -0.89735
H          1.15042       -0.96377        0.60188
H          2.36973        0.05160       -0.14025
H          1.28211        1.13180        1.87103
H          0.82986        2.61206       -0.77178
H          1.22958        3.33147        0.81060
H          2.40987        2.34908       -0.02424
H         -1.24670        1.17314        0.10419
H         -1.52287       -3.09001        0.41727
H         -3.74339       -0.41603        1.48152
H         -6.14947       -0.70220        1.77193
H         -7.13870       -2.96594        1.93379
H         -6.12449       -7.15802        0.13984
H         -4.85029       -9.28781        0.22847
H         -3.18896       -9.66344        2.03524
H         -2.83998       -7.93544        3.78356
H         -4.14405       -5.82997        3.72452
H         -3.24689       -4.70028        1.34817
H         -1.09011        3.74348        0.14705
H         -1.68532        5.76985        1.38001
H         -2.89383        6.98128        5.54185
H         -2.45335        3.39891        4.88795
H         -1.78558        1.44968        3.75422
