13

N          1.05554       -0.06941        0.06760
N          0.48356       -0.07322        1.39397
C         -0.99020       -0.11150        1.31576
C         -1.55749       -1.38964        0.68371
O         -0.96186       -2.55059        1.26001
H          0.80300        0.79314       -0.42817
H          2.07940       -0.02694        0.12164
H          0.78538       -0.88455        1.94626
H         -1.35524       -0.04858        2.34786
H         -1.37367        0.77260        0.79304
H         -2.63732       -1.44214        0.85391
H         -1.38664       -1.41412       -0.39786
H         -0.05377       -2.56647        0.90398
