17

N          1.76564       -1.41424        0.08547
C          0.53798       -0.73374       -0.02778
C         -0.67237       -1.42405        0.03691
C         -1.88286       -0.71245       -0.01697
N         -3.15340       -1.44757        0.00195
O         -4.20222       -0.78799        0.00238
O         -3.10254       -2.68612        0.01063
C         -1.89487        0.68858       -0.08905
C         -0.68601        1.38224       -0.08290
C          0.50655        0.66906       -0.02339
O          1.67364        1.37386        0.08566
H          2.48038       -1.00747       -0.51655
H          1.68498       -2.41154       -0.10319
H         -0.67123       -2.50888        0.10969
H         -2.82731        1.24788       -0.12669
H         -0.67133        2.46861       -0.09567
H          2.29889        0.75674        0.51044
