14

C          1.08038       -0.05304        0.17284
C          0.28627        1.19172        0.42943
O         -0.88150        1.33552        0.09655
O          1.03318        2.09150        1.12401
C          0.39721        3.33939        1.45743
C          1.05430        4.47734        0.69731
Br         0.48675        4.49297       -1.16784
H          0.78115       -0.47961       -0.78844
H          0.89946       -0.77165        0.97537
H          2.14814        0.17729        0.11588
H         -0.68834        3.31828        1.31055
H          0.57068        3.48658        2.52914
H          0.76332        5.44873        1.10484
H          2.14356        4.38712        0.67905
