8

C          1.01669       -0.09407        0.03601
C          0.51974       -1.50071       -0.20567
F          0.94236       -2.30851        0.79872
F         -0.83631       -1.51278       -0.17528
Cl         1.08697       -2.13180       -1.75711
H          0.65003        0.26869        1.00197
H          0.65255        0.59533       -0.73221
H          2.11020       -0.05678        0.06599
