19

C          1.08919       -0.08250        0.10433
C          0.55313       -1.30123       -0.57326
C         -0.21883       -2.21692        0.03412
C         -0.78999       -3.42626       -0.64699
O         -0.33094       -4.57091        0.06538
C         -2.32108       -3.44440       -0.64480
C         -2.93909       -2.29293       -1.42413
H          0.77573       -0.01880        1.15107
H          0.73391        0.81457       -0.41224
H          2.18273       -0.08789        0.07315
H          0.80669       -1.41656       -1.62496
H         -0.47677       -2.09587        1.08459
H         -0.42461       -3.51298       -1.67697
H          0.63782       -4.49943        0.11246
H         -2.66508       -4.39409       -1.07400
H         -2.69872       -3.43580        0.38585
H         -2.57430       -2.27711       -2.45604
H         -4.02827       -2.39780       -1.45067
H         -2.71020       -1.32755       -0.96212
