14

C          0.94898       -0.04366       -0.04306
C          0.41866       -1.00885       -1.10094
C          0.94897       -2.42241       -0.87168
C         -1.10773       -0.99383       -1.14405
Br         1.07616       -0.39709       -2.85714
H          0.61250       -0.33729        0.95763
H          0.60212        0.98067       -0.22213
H          2.04488       -0.02147       -0.03106
H          0.61250       -2.81406        0.09487
H          0.60211       -3.11380       -1.64840
H          2.04487       -2.44727       -0.87607
H         -1.49527        0.01171       -1.34490
H         -1.49527       -1.65696       -1.92617
H         -1.52896       -1.32661       -0.18873
