51

C          0.73234        0.20991        0.09141
C          0.41970       -1.28375       -0.03138
C          1.48544       -2.09071        0.71488
N         -0.93074       -1.49614        0.49773
C         -1.68965       -2.59172       -0.12041
C         -1.25310       -4.02240        0.26886
O         -1.62974       -4.25971        1.63231
C         -1.88617       -5.10512       -0.62148
O         -1.09463       -5.31990       -1.80484
C         -1.56221       -4.60854       -2.87128
C         -2.73072       -4.97603       -3.52552
C         -3.19055       -4.20862       -4.59527
C         -2.47215       -3.07843       -5.01942
C         -2.94211       -2.28591       -6.21660
C         -1.89383       -2.13699       -7.32852
O         -1.75766       -3.27236       -8.18348
C         -1.10060       -4.42050       -7.64165
C          0.29283       -4.13356       -7.16751
C          1.48104       -4.79671       -7.82004
C          1.25748       -3.32330       -7.99728
C         -1.30049       -2.72080       -4.34056
C         -0.81679       -3.51531       -3.30491
H          0.69608        0.54681        1.13313
H          0.02128        0.80857       -0.48888
H          1.73386        0.42746       -0.29762
H          0.46464       -1.52837       -1.09940
H          1.24445       -2.19955        1.77787
H          1.59448       -3.09109        0.28760
H          2.47006       -1.61596        0.64677
H         -0.94409       -1.53655        1.51214
H         -2.73150       -2.45932        0.19851
H         -1.69825       -2.43394       -1.19714
H         -0.17145       -4.13697        0.20081
H         -1.20023       -3.56789        2.16277
H         -1.88148       -6.05967       -0.08130
H         -2.94078       -4.88896       -0.83574
H         -3.27973       -5.86105       -3.21511
H         -4.09736       -4.51069       -5.11280
H         -3.84853       -2.73946       -6.63424
H         -3.22007       -1.28827       -5.85237
H         -2.23963       -1.33075       -7.98621
H         -0.91849       -1.81322       -6.95357
H         -1.70377       -4.86943       -6.84963
H         -1.07351       -5.16498       -8.44472
H          0.33636       -4.02666       -6.09134
H          2.29513       -5.11372       -7.17761
H          1.31748       -5.43849       -8.67754
H          0.92323       -2.96764       -8.96517
H          1.91306       -2.63763       -7.47287
H         -0.73329       -1.83922       -4.63289
H          0.11356       -3.25787       -2.81024
