24

C          1.34190        1.05057       -0.68791
N          0.75647        1.60835        0.52153
C         -0.68235        1.77398        0.42761
C          1.27654        1.05204        1.78343
C          0.38988        0.16941        2.69734
O          0.58376       -1.23823        2.55947
C          0.10579       -1.82093        1.35801
C         -1.38287       -2.19682        1.32064
O         -2.20908       -1.52091        2.25679
H          1.18162        1.73380       -1.52976
H          0.91222        0.08625       -0.96915
H          2.42639        0.93104       -0.59263
H         -1.20757        0.81495        0.37606
H         -1.06751        2.34256        1.28082
H         -0.94949        2.34495       -0.46893
H          2.23727        0.54842        1.62008
H          1.51620        1.94258        2.38034
H          0.68881        0.38904        3.73018
H         -0.66626        0.43626        2.65308
H          0.35766       -1.20017        0.50358
H          0.67977       -2.74366        1.20736
H         -1.77916       -2.01538        0.31439
H         -1.49181       -3.26939        1.50559
H         -2.27832       -0.59769        1.98367
