44

O          1.33798        0.46015       -0.66490
C          2.49263        0.33112       -0.28808
O          3.27258        1.39431        0.00369
C          3.18286       -1.00092       -0.10281
C          2.60311       -1.80033        1.06264
C          1.14613       -2.24487        0.88353
C          0.88295       -3.08290       -0.37192
C          1.60184       -4.43577       -0.38089
C          1.16266       -5.38100        0.74336
C         -0.32581       -5.74951        0.70574
C         -0.75294       -6.49891       -0.56163
C         -0.03483       -7.83701       -0.76345
C         -0.31769       -8.86702        0.33555
C         -1.77411       -9.34392        0.40259
C         -2.29262       -9.99690       -0.87649
C         -1.62864      -11.31732       -1.14473
O         -2.07429      -12.41742       -0.86185
O         -0.42140      -11.19479       -1.72604
H          4.17897        1.16858        0.28178
H          3.13142       -1.54733       -1.04984
H          4.25127       -0.84023        0.07986
H          3.23245       -2.68299        1.22888
H          2.66991       -1.20257        1.97996
H          0.83884       -2.80163        1.77633
H          0.49405       -1.36519        0.86128
H         -0.19746       -3.23443       -0.47285
H          1.17235       -2.52166       -1.26669
H          1.43831       -4.91483       -1.35309
H          2.68484       -4.28338       -0.31274
H          1.77453       -6.28885        0.69966
H          1.39041       -4.93317        1.71679
H         -0.56286       -6.34923        1.59122
H         -0.93791       -4.84620        0.80420
H         -1.83668       -6.65773       -0.53130
H         -0.57823       -5.86917       -1.44153
H         -0.31114       -8.24230       -1.74242
H          1.04702       -7.67425       -0.82247
H          0.34491       -9.72718        0.19115
H         -0.03872       -8.45783        1.31314
H         -1.86300      -10.05558        1.23280
H         -2.42398       -8.49838        0.65646
H         -3.36726      -10.19021       -0.77434
H         -2.19329       -9.35098       -1.75432
H         -0.08794      -12.11441       -1.78296
