23

C          1.06539       -0.10338        0.01748
C          0.34124        0.85997        0.90664
O         -0.81496        1.21923        0.73345
O          1.13936        1.25472        1.93582
C          0.53268        2.14789        2.88218
C          0.83672        3.61875        2.56571
C          0.64075        4.09318        1.12819
O          0.23477        4.52723        3.52526
C         -1.05655        4.88233        3.67510
C         -2.13542        4.13124        2.95934
O         -1.35256        5.79352        4.44657
H          0.72470        0.03420       -1.01252
H          0.86535       -1.12554        0.34574
H          2.14155        0.09083        0.03890
H         -0.53417        1.93914        3.00147
H          0.96323        1.90967        3.86292
H          1.91505        3.73423        2.74114
H         -0.38598        3.98330        0.77572
H          0.88437        5.15837        1.04777
H          1.29125        3.54503        0.43961
H         -2.70357        3.54967        3.69055
H         -2.79566        4.85232        2.46817
H         -1.78188        3.45278        2.19161
