55

C          1.05689        0.06957       -0.00261
O          0.36619       -1.04418       -0.56049
C          0.88960       -1.51785       -1.73668
C         -0.07128       -1.82178       -2.70931
C          0.27360       -2.31653       -3.95758
N         -0.68959       -2.53572       -4.85667
C         -0.35774       -3.01131       -6.06526
N         -1.36084       -3.13895       -7.02115
C         -2.71767       -3.18030       -6.49757
C         -1.07314       -3.92222       -8.21712
C         -0.82434       -3.01734       -9.42947
C          0.44666       -2.16769       -9.37871
N          1.65220       -2.97077       -9.28579
C          2.94166       -2.53341       -9.29486
O          3.79211       -3.26506       -8.77208
C          3.33437       -1.14657       -9.83196
C          3.48813       -0.17079       -8.67298
C          3.39347        1.16064       -9.36981
C          2.35578        0.87782      -10.43144
O          2.50032       -0.50258      -10.79426
N          0.90928       -3.29712       -6.40185
C          1.87370       -3.06453       -5.50011
N          3.17724       -3.38249       -5.90221
C          1.61740       -2.55525       -4.22528
C          2.59880       -2.28711       -3.23481
C          2.24526       -1.75260       -1.99347
O          3.14317       -1.49452       -0.99453
C          4.50919       -1.35921       -1.36945
H          0.33019        0.65344        0.57084
H          1.47969        0.72930       -0.76881
H          1.82806       -0.26922        0.69491
H         -1.12197       -1.64821       -2.48654
H         -3.44359       -3.19394       -7.31861
H         -2.87982       -4.07978       -5.89228
H         -2.95238       -2.29425       -5.89686
H         -0.25939       -4.64216       -8.07350
H         -1.94403       -4.54821       -8.45569
H         -0.78408       -3.65197      -10.32374
H         -1.68294       -2.34652       -9.56065
H          0.48960       -1.57760      -10.29623
H          0.43347       -1.46647       -8.53844
H          1.58161       -3.79706       -8.70249
H          4.30392       -1.28199      -10.32947
H          2.66724       -0.27996       -7.95379
H          4.42788       -0.30706       -8.12907
H          3.11914        1.98639       -8.70863
H          4.35479        1.40088       -9.83956
H          1.34199        1.01797      -10.04159
H          2.47906        1.50686      -11.31736
H          3.80652       -2.59442       -5.81318
H          3.17049       -3.69577       -6.87606
H          3.63200       -2.53235       -3.45934
H          4.94558       -2.33294       -1.61226
H          4.62940       -0.65340       -2.19882
H          5.05250       -0.95520       -0.50982
