41

C          0.96030       -0.63812       -0.17388
C          0.61667       -0.25581        1.26959
C          1.68216       -0.85692        2.20412
S          0.68485        1.59948        1.42462
C         -0.34488        1.57318        2.92576
C         -1.69631        2.32343        2.95908
N         -2.08224        3.06179        1.73105
C         -2.82508        4.19475        1.56292
O         -3.06508        4.53716        0.39911
C         -3.28438        5.05164        2.73109
C         -3.93368        4.28416        3.85640
O         -3.60014        4.25520        5.03089
O         -4.99602        3.55747        3.44820
C         -2.21340        6.02782        3.19783
C         -0.80785        5.76029        3.34810
C         -0.09451        6.85539        3.78340
S         -1.09141        8.21972        4.01030
C         -2.47989        7.34851        3.52740
C         -2.30847        0.88255        3.06343
O         -3.41296        0.39198        3.08020
N         -1.08689        0.31150        2.85969
C         -0.81065       -0.62289        1.75713
C         -1.79655       -0.61750        0.57354
O         -1.98491       -1.56084       -0.18151
O         -2.35256        0.57872        0.29237
H          0.32021       -0.13708       -0.90851
H          0.85857       -1.71921       -0.32187
H          1.99612       -0.37490       -0.42101
H          1.67386       -1.95113        2.13624
H          2.69088       -0.52167        1.93489
H          1.51567       -0.59938        3.25591
H          0.23169        1.65077        3.85447
H         -1.80101        2.90607        3.87454
H         -1.90508        2.59642        0.83960
H         -4.10278        5.67053        2.32836
H         -5.31065        3.07772        4.24494
H         -0.32252        4.81619        3.14019
H          0.96833        6.92047        3.97296
H         -3.43550        7.85689        3.50579
H         -0.84991       -1.63025        2.18840
H         -2.94320        0.39642       -0.47215
