27

C          0.91555       -0.16229       -0.02754
C          0.42536        1.22635        0.36027
C          0.90211        2.34641       -0.58598
C          0.44065        2.10206       -2.02884
C          0.39074        3.73497       -0.12943
C          0.86330        4.18980        1.26071
O          2.28954        4.23938        1.29138
C          0.35981        5.59124        1.62971
C         -1.15153        5.68361        1.76572
H          0.46817       -0.50104       -0.96625
H          0.63826       -0.88547        0.74654
H          2.00485       -0.17947       -0.13182
H         -0.67037        1.21817        0.40852
H          0.78557        1.42402        1.37541
H          1.99898        2.35756       -0.59250
H         -0.64901        2.00675       -2.08551
H          0.74186        2.93037       -2.67944
H          0.88632        1.19267       -2.44291
H          0.73174        4.47648       -0.86459
H         -0.70492        3.73077       -0.16484
H          0.53529        3.49072        2.03671
H          2.61853        3.32541        1.27142
H          0.81950        5.88998        2.58074
H          0.71139        6.32383        0.89254
H         -1.53253        4.92121        2.45250
H         -1.43415        6.66532        2.15908
H         -1.64964        5.56088        0.79968
