15

F          1.04274       -0.06555        0.02071
C          2.37262        0.15856        0.09319
F          2.96684       -0.97443        0.52022
O          2.86694        0.46017       -1.20327
C          2.39010       -0.42457       -2.21770
C          2.95128       -1.84738       -2.22655
F          2.39773       -2.56665       -1.21304
F          2.50725       -2.45133       -3.37428
C          4.47561       -1.88883       -2.18041
F          5.01540       -1.21393       -3.22845
F          4.99088       -1.33989       -1.05632
F          4.94492       -3.15933       -2.25045
H          2.58342        0.97544        0.78789
H          1.29423       -0.45546       -2.20022
H          2.65052        0.04616       -3.17327
