12

O         -2.15533        0.01985        0.00609
N         -0.88712        0.00946        0.00286
C         -0.18805       -1.18529        0.00105
C          1.20598       -1.21240       -0.00284
C          1.91215       -0.01350       -0.00440
C          1.22573        1.19683       -0.00232
C         -0.16856        1.19257        0.00105
H         -0.82643       -2.05519        0.00287
H          1.73164       -2.16330       -0.00460
H          3.00031       -0.02241       -0.00726
H          1.76691        2.13898       -0.00335
H         -0.79259        2.07283        0.00253
