27

C          1.00731        0.01348        0.05711
C          0.54351        1.43184        0.40041
C          1.18360        2.52016       -0.47942
O          0.56576        3.36190       -1.12708
C          2.65764        2.69880       -0.44769
C          3.53229        1.73264       -0.95166
C          4.90999        1.97222       -0.95024
C          5.40558        3.18629       -0.47485
Cl         7.09966        3.48319       -0.49716
C          4.53573        4.16691       -0.00095
C          3.15953        3.92500        0.00960
C         -0.97670        1.45310        0.54214
C         -1.96154        2.21476       -0.32119
C         -1.85958        0.72853       -0.45652
H          0.94639       -0.17457       -1.02033
H          0.39910       -0.74275        0.56621
H          2.04075       -0.15425        0.37414
H          0.91518        1.65044        1.41267
H          3.16387        0.80638       -1.38104
H          5.58876        1.21758       -1.34012
H          4.91883        5.12354        0.34516
H          2.47805        4.70127        0.35295
H         -1.25331        1.33235        1.58789
H         -2.84299        2.62275        0.16253
H         -1.64245        2.80096       -1.17293
H         -1.43287        0.35109       -1.37894
H         -2.67512        0.12658       -0.07142
