28

C          1.23993        0.01454       -0.33195
C          0.53579        0.18201       -1.67467
C          1.07029       -0.76387       -2.74334
O         -0.90208        0.12986       -1.52854
C         -1.51511       -1.03129       -1.17100
O         -0.96893       -2.12121       -1.05865
C         -2.99294       -0.79774       -0.87735
O         -3.30088        0.34788       -0.08635
C         -3.18451        0.14305        1.26527
C         -1.95047       -0.16360        1.84398
C         -1.82241       -0.26644        3.22970
C         -2.92983       -0.04842        4.04330
Cl        -2.75924       -0.15093        5.75152
C         -4.16597        0.26686        3.48396
C         -4.29030        0.36940        2.09529
Cl        -5.83581        0.76904        1.43765
H          1.05932       -0.97350        0.10263
H          0.86721        0.75311        0.38596
H          2.32095        0.15034       -0.43227
H          0.73986        1.20271       -2.01972
H          1.00055       -1.81234       -2.44036
H          0.50317       -0.65479       -3.67283
H          2.12522       -0.55357       -2.94826
H         -3.49075       -0.66861       -1.84573
H         -3.41787       -1.70432       -0.42714
H         -1.06162       -0.29526        1.24200
H         -0.85202       -0.49810        3.66254
H         -5.02437        0.44282        4.12602
