26

C          0.56380        0.50649        1.16890
C          0.27098        1.81912        0.45356
C          1.17108        2.06439       -0.76218
C          0.61927        1.60965       -2.13115
C          0.12260        0.15978       -2.20915
C          1.24083       -0.86727       -2.09837
C          2.34322       -0.57516       -3.08944
O          2.90804       -1.48113       -3.70264
C          2.83683        0.85175       -3.16384
C          1.67064        1.83336       -3.23802
H          0.15488       -0.35026        0.62904
H          0.10922        0.50975        2.16451
H          1.64067        0.35227        1.29468
H         -0.78898        1.88094        0.18433
H          0.45737        2.62549        1.17425
H          1.32371        3.15083       -0.83445
H          2.16345        1.64293       -0.57266
H         -0.23886        2.25755       -2.35792
H         -0.37522        0.02311       -3.17940
H         -0.64774       -0.03160       -1.45587
H          0.83786       -1.86534       -2.30205
H          1.68296       -0.87845       -1.09853
H          3.46524        1.03994       -2.28754
H          3.46608        0.96193       -4.05331
H          1.17985        1.72087       -4.21381
H          2.05280        2.86022       -3.19829
