28

S          1.54963        2.37443        0.18139
C          0.74846        2.17254        1.80502
C          0.98509        0.84635        2.53591
S          2.73172        0.36465        2.80972
C          2.98158       -0.69135        1.33422
C          2.99613       -2.20719        1.58341
C          1.86224       -2.78975        2.45661
S          0.21417       -2.88678        1.68925
S          3.23409       -3.26244        0.05824
C          2.92936       -2.15259       -1.37594
C          1.53309       -2.26434       -1.99908
S          0.34840       -1.00513       -1.43535
H          0.96917        1.32459       -0.42330
H          1.05980        3.00859        2.43786
H         -0.32988        2.28195        1.64052
H          0.53278        0.92683        3.53189
H          0.45405        0.03847        2.03058
H          2.22036       -0.43003        0.61025
H          3.95063       -0.39220        0.91457
H          3.91447       -2.40036        2.15412
H          2.12742       -3.81082        2.75751
H          1.75762       -2.22803        3.38882
H          0.55993       -3.77458        0.74211
H          3.24679       -1.12145       -1.20263
H          3.62933       -2.53228       -2.13051
H          1.62651       -2.10781       -3.07925
H          1.09532       -3.25765       -1.85720
H          0.07099       -1.57056       -0.24808
