39

C          0.41487        0.27763        0.11260
C          0.59752        1.36800       -0.66176
C          1.97308        1.97829       -0.77597
C          2.39197        3.02210        0.27795
C          1.75560        2.94025        1.63360
C          0.57834        3.46644        2.02819
C          0.19654        3.34665        3.48180
C         -0.37463        4.24862        1.14882
C         -1.52569        3.44595        0.54121
C         -1.41449        3.03514       -0.93543
C         -0.58474        1.83108       -1.45338
C         -0.40815        2.56085       -2.80204
C         -0.92397        3.89255       -2.17673
C         -2.09109        4.52998       -2.94057
C          0.20074        4.91415       -2.07921
H         -0.54766       -0.21454        0.20327
H          1.23080       -0.14355        0.69141
H          2.13367        2.40070       -1.77284
H          2.70566        1.15857       -0.72868
H          2.29636        4.03889       -0.10671
H          3.47688        2.91744        0.42272
H          2.35537        2.41311        2.37456
H          0.00688        2.30280        3.74763
H          1.00322        3.73477        4.11532
H         -0.70139        3.92466        3.72122
H          0.16935        4.82749        0.40940
H         -0.83024        5.02070        1.78663
H         -2.42655        4.07093        0.62481
H         -1.74025        2.55467        1.14624
H         -2.47205        2.75514       -1.12642
H         -1.24682        0.96462       -1.62362
H          0.59412        2.57984       -3.23808
H         -1.07095        2.15873       -3.58157
H         -2.54760        5.32680       -2.34248
H         -1.74593        4.97376       -3.88155
H         -2.87090        3.80223       -3.18481
H         -0.13829        5.84118       -1.60628
H          1.04615        4.53388       -1.52166
H          0.58715        5.16861       -3.07257
