33

C          0.25756       -1.11665        0.49350
C          0.17814       -0.87462        1.99011
O          0.90846        0.27272        2.41483
P          2.63846        0.27272        2.41483
O          2.75553       -1.24868        2.32198
O          2.55525        0.92681        0.89785
C          2.22186        2.30388        0.79601
C          1.02349        2.48086       -0.11498
S          4.75846        0.27272        2.41483
C          5.19749        0.05199        4.16005
C          5.29400        1.36997        4.93380
S          3.75667        1.84056        5.81033
C          2.98630        3.02981        4.67414
C          3.78564        4.28789        4.40334
H         -0.15051       -0.26609       -0.05914
H         -0.31474       -2.00773        0.21907
H          1.28765       -1.25566        0.15469
H         -0.86880       -0.69245        2.25569
H          0.48437       -1.75757        2.55938
H          1.98778        2.72713        1.77620
H          3.08690        2.83777        0.39390
H          0.13746        2.00534        0.31667
H          0.79894        3.54119       -0.26203
H          1.19954        2.01351       -1.08880
H          4.51581       -0.66147        4.63449
H          6.18938       -0.41327        4.15632
H          6.02369        1.21950        5.73831
H          5.68900        2.18760        4.32554
H          2.76478        2.52142        3.74149
H          2.02272        3.31005        5.11311
H          4.71833        4.07967        3.87345
H          3.19990        4.95667        3.76200
H          4.01309        4.82837        5.32668
