26

C          0.85454        0.05101        0.56285
C          0.20394       -1.08644        0.28359
C         -1.12941       -1.16239       -0.39857
O         -1.00139       -1.89809       -1.62507
C         -0.82625       -1.05555       -2.69378
C         -1.94960       -0.44927       -3.26232
C         -1.80202        0.41314       -4.35098
C         -0.53072        0.67371       -4.88189
C         -0.36595        1.59799       -6.06323
C         -0.62038        0.92945       -7.38790
O         -1.42267        1.29725       -8.23206
O          0.17190       -0.13595       -7.61775
C          0.58475        0.02341       -4.33270
C          0.43714       -0.85333       -3.25575
Cl         1.84058       -1.67331       -2.67565
H          0.44441        1.02294        0.30797
H          1.83484        0.02569        1.02929
H          0.66876       -2.03793        0.53172
H         -1.81638       -1.72564        0.24298
H         -1.57710       -0.17038       -0.54450
H         -2.93994       -0.65269       -2.86356
H         -2.68687        0.87613       -4.78500
H         -1.05999        2.44133       -5.96145
H          0.63978        2.03443       -6.08221
H         -0.11279       -0.46795       -8.49458
H          1.57289        0.18670       -4.75785
