39

C          0.91939       -0.01300        0.11589
C          0.58211        0.59532       -1.23653
C          1.09723       -0.22304       -2.41004
C          0.21413       -0.83948       -3.22407
C          0.48693       -1.61128       -4.49101
C         -0.52547       -2.75687       -4.73679
C         -0.70695       -2.98708       -6.25473
C         -0.42008       -4.42667       -6.46184
C         -0.14750       -5.07294       -5.32620
C          0.16297       -6.53185       -5.25966
C         -0.21953       -4.16978       -4.10718
C          1.07481       -4.25347       -3.28674
C         -1.40222       -4.59882       -3.21650
C          2.59248       -0.22608       -2.59957
O          3.04498        1.10664       -2.79519
H          0.55619       -1.04311        0.18871
H          0.44830        0.56966        0.91457
H          1.99837       -0.01225        0.29799
H         -0.50809        0.70727       -1.29816
H          0.98332        1.61448       -1.29210
H         -0.84555       -0.72145       -2.99452
H          0.38862       -0.87630       -5.30076
H          1.51221       -1.98361       -4.54653
H         -1.50141       -2.40964       -4.36631
H         -1.73623       -2.76161       -6.55537
H         -0.03292       -2.37794       -6.86471
H         -0.43879       -4.88792       -7.44163
H         -0.59749       -7.11131       -5.79416
H          1.13889       -6.73380       -5.71283
H          0.18862       -6.89989       -4.23084
H          1.07104       -3.53816       -2.45826
H          1.19993       -5.24806       -2.84132
H          1.96274       -4.07042       -3.90136
H         -2.35009       -4.57970       -3.76777
H         -1.27199       -5.61600       -2.82942
H         -1.50343       -3.92910       -2.35516
H          3.09498       -0.63670       -1.71890
H          2.91950       -0.81285       -3.46018
H          2.49287        1.48442       -3.50073
