37

C          1.03769        1.15021        0.40516
C          0.38535        0.35878        1.53340
N          1.27482       -0.02933        2.64007
C          0.48040       -0.67306        3.70157
C          1.23970       -1.34903        4.83939
C          2.51714       -0.70366        2.24540
C          2.50722       -2.16675        1.77522
O          1.77322       -2.37942        0.56292
C          0.65486       -3.13462        0.69873
O          0.12590       -3.51299        1.72680
C          0.22205       -3.55984       -0.63820
C          1.05021       -4.44654       -1.33773
C          0.63549       -4.96119       -2.56703
C         -0.58054       -4.56609       -3.13037
N         -1.05281       -5.19666       -4.28531
C         -1.41967       -3.71856       -2.39840
C         -1.01986       -3.20289       -1.15971
Cl        -2.10480       -2.14006       -0.34085
H          1.58488        2.01614        0.79034
H          0.26719        1.51813       -0.28125
H          1.72176        0.53109       -0.18311
H         -0.41411        0.99181        1.94040
H         -0.10495       -0.51801        1.10440
H         -0.13536        0.11288        4.15850
H         -0.21851       -1.40451        3.27998
H          2.07089       -0.73834        5.20114
H          0.56129       -1.52303        5.68211
H          1.62510       -2.32706        4.54164
H          3.02090       -0.10337        1.47915
H          3.20370       -0.64711        3.10030
H          3.54382       -2.44195        1.54318
H          2.20126       -2.85036        2.57053
H          1.99826       -4.76717       -0.91154
H          1.26580       -5.68665       -3.07598
H         -1.76379       -4.67567       -4.78992
H         -0.32561       -5.54969       -4.90000
H         -2.40140       -3.46462       -2.79054
