15

O          1.02358       -0.24581        0.38429
N          2.16084       -0.02192       -0.05975
O          2.66882       -0.63919       -1.00767
C          2.94946        1.10933        0.57030
Br         2.48513        2.68338       -0.51732
C          2.47272        1.34434        2.00910
O          2.88213        0.30788        2.90975
C          4.45514        0.84581        0.46516
O          4.93270       -0.21828        1.29187
H          2.92508        2.26582        2.39522
H          1.38843        1.48117        2.09971
H          2.14851       -0.33871        2.96391
H          4.77102        0.63093       -0.56226
H          5.00980        1.74237        0.76857
H          4.57571       -0.09471        2.19765
