28

C          1.05910        0.22822        0.28316
C          0.52077       -0.96797        1.05332
C         -0.97779       -1.22629        0.79053
C         -1.11696       -2.73175        0.51835
C          0.17279       -3.32632        1.07004
C          0.60877       -4.71367        0.61876
C          0.47561       -4.99301       -0.87818
C          2.04532       -5.00692        1.03067
O          2.44279       -6.16273        1.15936
O          2.91149       -3.96857        1.13577
C          2.49496       -2.60685        1.37332
C          1.20003       -2.28393        0.66700
H          0.53089        1.14239        0.57306
H          0.93566        0.09606       -0.79704
H          2.12477        0.37409        0.48612
H          0.65694       -0.77843        2.12643
H         -1.56019       -0.94577        1.67569
H         -1.36802       -0.64679       -0.05282
H         -2.00669       -3.15412        0.99495
H         -1.20911       -2.88538       -0.56195
H          0.09361       -3.34403        2.16880
H         -0.02244       -5.43733        1.15207
H          0.83823       -5.99941       -1.11770
H         -0.56823       -4.94198       -1.20137
H          1.06180       -4.29158       -1.47997
H          2.42049       -2.47030        2.45820
H          3.29702       -1.95298        1.01581
H          1.36445       -2.31589       -0.41850
