74

C          1.30678        0.38960        0.07500
C          0.73420        0.17586        1.48944
C          1.09997        1.45566        2.24043
C          0.26919        2.37169        2.75713
C          0.70978        3.64846        3.44661
C          0.21024        4.83617        2.60988
C          0.21196        3.67770        4.92534
C          0.67061        2.42499        5.69036
C          0.71164        4.92544        5.66224
O         -1.22212        3.71589        4.94451
C         -0.78375       -0.23467        1.55885
C         -1.64793        0.72363        0.70507
C         -1.97782       -0.06032       -0.55144
C         -2.34333       -1.40749        0.03680
C         -2.75326       -2.62614       -0.74407
C         -2.89034       -2.78270       -2.07878
C         -2.70165       -1.78355       -3.11249
C         -3.12215       -1.82221       -4.39338
C         -3.85159       -2.96221       -5.06334
C         -5.20706       -2.48879       -5.60787
O         -6.06188       -2.05188       -4.54248
C         -5.03306       -1.32946       -6.59370
C         -4.27084       -0.15990       -5.95862
O         -5.09758        0.50534       -5.00042
C         -2.95101       -0.60440       -5.29774
C         -3.23513       -3.72691        0.20665
C         -2.51963       -3.85056        1.57544
C         -1.94902       -2.53767        2.16786
C         -1.21880       -1.69445        1.08370
C         -0.02744       -2.55043        0.59647
H          0.98932        1.34593       -0.35682
H          1.03011       -0.37870       -0.64122
H          2.40317        0.39919        0.10772
H          1.30745       -0.61966        1.98013
H          2.17330        1.63987        2.31530
H         -0.80994        2.24007        2.71263
H          1.80772        3.69140        3.45184
H         -0.88392        4.89107        2.58815
H          0.58963        5.78606        2.99870
H          0.55666        4.75694        1.57220
H          1.75890        2.30996        5.65232
H          0.36464        2.47412        6.74114
H          0.20664        1.51623        5.29086
H          0.28259        5.84026        5.24080
H          0.39569        4.90662        6.71183
H          1.80331        4.99924        5.63324
H         -1.51282        3.61616        5.86657
H         -1.08895       -0.13252        2.61001
H         -2.57150        0.95659        1.25231
H         -1.17694        1.67794        0.45904
H         -2.81035        0.40714       -1.08572
H         -1.10853       -0.11374       -1.21062
H         -3.26729       -1.17393        0.59726
H         -3.25726       -3.74675       -2.42251
H         -2.20352       -0.87061       -2.81711
H         -3.23192       -3.33902       -5.88673
H         -4.01537       -3.80076       -4.38229
H         -5.71063       -3.32332       -6.10726
H         -5.76096       -2.47840       -3.71860
H         -6.02231       -0.98066       -6.91463
H         -4.49018       -1.68099       -7.47889
H         -4.04707        0.58336       -6.73205
H         -5.63256       -0.18856       -4.55975
H         -2.53864        0.24241       -4.73459
H         -2.22607       -0.85947       -6.08011
H         -3.21208       -4.70593       -0.28850
H         -4.29295       -3.51434        0.41447
H         -3.21737       -4.29333        2.29774
H         -1.71249       -4.58729        1.48363
H         -2.77680       -1.96212        2.60381
H         -1.27435       -2.77449        2.99943
H         -0.30407       -3.57271        0.32747
H          0.44963       -2.16130       -0.29724
H          0.72266       -2.64809        1.39103
