20

C          1.07737       -0.05730        0.01195
O          0.45483       -0.68582       -1.10346
C          0.95961       -0.33689       -2.32556
C          0.05689       -0.39572       -3.38592
C          0.46441       -0.05384       -4.67712
C          1.78212        0.33340       -4.92646
O          2.04901        0.65017       -6.22943
C          3.35924        1.11848       -6.52164
C          2.69399        0.35982       -3.87059
C          2.28390        0.02371       -2.57310
H          0.45469       -0.24729        0.89154
H          1.13931        1.02807       -0.12521
H          2.06534       -0.48602        0.20569
H         -0.97201       -0.69494       -3.20559
H         -0.25258       -0.08751       -5.49346
H          3.59264        2.02585       -5.95451
H          4.10450        0.33676       -6.34213
H          3.39339        1.37397       -7.58512
H          3.73340        0.63112       -4.02102
H          3.02404        0.03536       -1.77976
