36

C          2.20296       -0.91293       -0.62680
C          0.72925       -0.77876       -0.73558
C         -0.27887       -1.57872       -0.23482
N         -1.55074       -1.03364       -0.30048
C         -1.46323        0.17585       -0.79733
N         -2.51445        1.05752       -0.80543
C         -2.49418        2.26886       -0.14385
O         -3.55920        2.60885        0.38508
C         -1.21857        3.10584       -0.00913
C         -1.45299        4.61128        0.16474
O         -2.50382        5.17296       -0.13873
C         -0.29337        5.47832        0.56999
C         -0.46932        6.87163        0.55988
C          0.59791        7.73132        0.84448
C          1.85612        7.21414        1.14616
C          2.04417        5.83601        1.18638
C          0.96973        4.98231        0.90322
S          1.25316        3.25294        0.99118
O          1.92275        2.97290        2.24219
O          1.81224        2.87384       -0.28278
N         -0.31384        2.69537        1.08299
C         -0.69145        1.70401        2.08666
S          0.01409        0.54819       -1.55089
H          2.72368       -0.46332       -1.47750
H          2.54617       -0.40669        0.28396
H          2.49914       -1.96346       -0.55777
H         -0.13826       -2.53595        0.25355
H         -3.39079        0.59073       -0.59709
H         -0.71489        3.05226       -0.97950
H         -1.43965        7.30359        0.31613
H          0.44605        8.80857        0.82133
H          2.68784        7.88438        1.35236
H          3.02509        5.42950        1.42790
H         -0.30854        0.71940        1.80927
H         -0.28198        1.96711        3.06594
H         -1.77346        1.63755        2.21804
