24

N          2.36478       -0.01616       -0.14333
C          0.97275       -0.00520       -0.00123
C          0.25419       -1.20070       -0.01467
C         -1.14546       -1.19536        0.00522
C         -1.86363        0.00926       -0.00862
C         -3.33416        0.01480        0.01307
C         -4.07115        0.65616       -0.99705
C         -5.46945        0.65802       -0.97746
C         -6.14715        0.01878        0.05681
Cl        -7.86717        0.02017        0.08310
C         -5.43978       -0.62207        1.06984
C         -4.04177       -0.62407        1.04582
C         -1.13365        1.20538       -0.06241
C          0.26630        1.19521       -0.07933
H          2.80602       -0.85186        0.22713
H          2.81513        0.83224        0.18503
H          0.77648       -2.15311       -0.04134
H         -1.67335       -2.14674        0.00580
H         -3.55542        1.15037       -1.81845
H         -6.01847        1.15596       -1.77185
H         -5.96518       -1.11932        1.88044
H         -3.50212       -1.12106        1.84996
H         -1.65101        2.16195       -0.09257
H          0.79867        2.13986       -0.15025
