17

O          1.27661        0.10709       -0.58567
C          2.36156       -0.05535       -0.06041
O          3.12532        0.93884        0.45468
C          3.04759       -1.37141        0.08516
C          2.54895       -2.49328       -0.56128
C          3.23916       -3.69125       -0.41244
C          4.37903       -3.72917        0.38970
C          4.79955       -2.55600        1.01398
C          5.98255       -2.53890        1.92982
O          6.41953       -1.56840        2.52172
O          6.55643       -3.75062        2.07570
N          4.16663       -1.36221        0.86028
H          3.94649        0.55536        0.84581
H          1.65250       -2.43253       -1.17154
H          2.88913       -4.59149       -0.91214
H          4.91762       -4.66247        0.52422
H          7.28799       -3.58627        2.70948
