17

O         -1.43996       -2.29431        0.02046
C         -1.07090       -1.13884        0.01025
O         -1.84015       -0.01742       -0.00147
C         -1.09443        1.11972       -0.01185
O         -1.48742        2.26714       -0.02289
C          0.28643        0.69055       -0.00677
C          1.44898        1.44305       -0.01431
C          2.66170        0.73599       -0.00623
N          3.93158        1.47669       -0.01502
O          3.87223        2.71281       -0.03973
O          4.97965        0.81798        0.00252
C          2.68131       -0.67999        0.00957
C          1.48069       -1.40086        0.01645
C          0.30013       -0.67770        0.00755
H          1.40258        2.52922       -0.02615
H          3.62450       -1.22671        0.01615
H          1.47306       -2.48782        0.02812
