29

C          1.21660        0.04983        0.19704
C          0.42141       -1.17579        0.70221
C          0.89602       -1.39115        2.16536
C         -1.08102       -0.85444        0.71420
C         -1.62175       -0.87571       -0.69156
O         -2.34727        0.02446       -1.11512
C         -1.34713       -2.11423       -1.50440
C          0.14592       -2.48271       -1.46500
C          0.94337       -1.60548       -2.45629
C          0.30128       -3.93362       -2.00259
N          0.72172       -2.41074       -0.08693
O          0.06587       -3.49244        0.65165
H          1.24992        0.83848        0.95928
H          0.76865        0.51797       -0.68112
H          2.25419       -0.21478       -0.03525
H          1.96333       -1.64030        2.20070
H          0.74756       -0.48525        2.76551
H          0.34621       -2.19171        2.67245
H         -1.65266       -1.58582        1.29815
H         -1.26673        0.13295        1.15298
H         -1.67707       -1.93992       -2.53548
H         -1.97212       -2.91400       -1.08915
H          2.02348       -1.73791       -2.32294
H          0.71418       -1.87811       -3.49417
H          0.71087       -0.54357       -2.37763
H         -0.29794       -4.65602       -1.43679
H         -0.03111       -4.00550       -3.04530
H          1.34715       -4.26046       -1.96469
H          0.83223       -4.04959        0.89232
