45

N          0.25814       -0.52036       -0.84311
C          0.33437       -1.94318       -0.49804
C          0.95738       -2.19872        0.87558
O          0.27069       -2.42048        1.87366
N          2.31020       -2.18290        1.03132
C          3.35000       -1.69635        0.14261
C          4.23079       -0.58071        0.73630
O          5.45143       -0.58575        0.55620
N          3.71378        0.49899        1.38747
C          2.33953        0.91761        1.59520
C          1.78959        1.08122        3.01905
O          1.00348        1.99919        3.27315
N          2.00988        0.16957        4.00073
C          2.90457       -0.96934        4.08702
C          3.87201       -0.91256        5.27293
O          3.97523       -1.86055        6.05309
N          4.70519        0.15201        5.44437
C          5.01425        1.23705        4.53212
C          5.17325        2.60914        5.19080
O          6.04069        3.39409        4.80130
N          4.26654        3.05514        6.10433
C          3.00651        2.45293        6.51243
C          3.04685        1.56399        7.74638
O          2.06863        1.04084        8.26093
O          4.27834        1.33121        8.23972
H         -0.23352       -0.01606       -0.10425
H          1.18189       -0.11296       -0.94321
H         -0.68180       -2.35053       -0.47749
H          0.89056       -2.49493       -1.26027
H          2.59992       -2.53297        1.93504
H          4.00354       -2.55511       -0.04674
H          2.94374       -1.35289       -0.80837
H          4.42845        1.19046        1.58785
H          2.25757        1.89595        1.10684
H          1.66445        0.25029        1.08437
H          1.41405        0.32100        4.80830
H          2.26524       -1.84949        4.21378
H          3.49862       -1.09479        3.19124
H          5.34219        0.03273        6.22584
H          5.96252        0.97597        4.04906
H          4.26268        1.33185        3.75908
H          4.47230        3.98183        6.45538
H          2.31144        3.27418        6.70854
H          2.62069        1.86536        5.68696
H          4.11941        0.71077        8.98352
