27

N          1.26810        0.25783       -0.15328
S          0.53546        1.68926       -0.64733
O          1.23931        2.07949       -1.84726
O         -0.88368        1.43079       -0.62022
C          0.91320        2.85348        0.62619
C          1.46237        2.44605        1.84178
C          1.76241        3.40039        2.81628
C          1.49738        4.75979        2.59629
C          1.80875        5.79413        3.65284
C          0.77113        5.88169        4.77899
C          0.78894        4.72837        5.77805
O          2.05346        4.61620        6.41631
C          0.94806        5.15248        1.36617
C          0.66488        4.20575        0.37903
H          0.55036       -0.45644       -0.02122
H          1.98541       -0.00380       -0.83107
H          1.66488        1.39872        2.04676
H          2.20632        3.06617        3.75034
H          2.81469        5.61721        4.05066
H          1.86321        6.77898        3.16941
H          0.97655        6.80495        5.33595
H         -0.23670        5.97662        4.35754
H          0.04742        4.91643        6.56124
H          0.53139        3.77095        5.31725
H          2.68883        4.26519        5.77113
H          0.74542        6.20262        1.16301
H          0.25147        4.52624       -0.57520
