13

C          0.91688        0.00407        0.05885
C          0.42347       -1.41664        0.25354
C          0.94256       -1.99322        1.55381
C         -0.06262       -2.43678        2.58371
O          2.15084       -2.09637        1.77158
H          0.58807        0.64806        0.88127
H          0.53063        0.41755       -0.87776
H          2.01063        0.04205        0.02332
H         -0.67065       -1.43009        0.24576
H          0.76247       -2.06274       -0.56308
H          0.08736       -3.49807        2.79755
H          0.07170       -1.84550        3.49305
H         -1.08513       -2.29652        2.22555
