9

C          1.04807        0.04952       -0.00659
C          0.39986        1.07850        0.56639
Br        -1.47362        1.11812        0.58844
C          1.10501        2.24102        1.21372
F          1.90915        1.82835        2.23014
F          1.90915        2.88775        0.32763
F          0.27370        3.17880        1.73591
H          0.51752       -0.77806       -0.46742
H          2.13400        0.01533       -0.02563
