31

N          2.36734       -0.23405        0.23757
C          0.99828       -0.23408        0.52058
C          0.15065       -1.16976       -0.08530
C         -1.23901       -1.07675        0.04910
C         -1.78260       -0.01008        0.76365
S         -3.53985        0.19710        0.88460
O         -4.17435       -1.07653        0.60659
O         -3.83111        0.91326        2.10509
N         -3.92261        1.22058       -0.42179
C         -3.24376        2.48383       -0.50854
C         -3.68485        3.53196        0.30968
C         -2.99101        4.74638        0.34846
C         -1.84042        4.92542       -0.41760
C         -1.39062        3.89798       -1.24490
C         -2.09839        2.68467       -1.30067
N         -1.61631        1.66481       -2.23374
O         -0.40197        1.65317       -2.48202
O         -2.44458        0.90964       -2.75975
C         -0.95052        0.93252        1.37508
C          0.43191        0.83773        1.21566
H          2.74716       -1.14586        0.00501
H          2.93723        0.26724        0.91061
H          0.56956       -1.97405       -0.68585
H         -1.87779       -1.81295       -0.43457
H         -4.94075        1.27993       -0.48717
H         -4.55969        3.40919        0.94603
H         -3.34283        5.55165        0.99108
H         -1.29526        5.86639       -0.37347
H         -0.49281        4.05169       -1.84180
H         -1.36875        1.76614        1.93461
H          1.06625        1.61600        1.63189
