30

O          1.14845        0.19239       -0.18702
C          0.70895        1.51430       -0.47870
C          0.97702        2.45839        0.69039
O          0.83983        3.83672        0.28038
C          0.71732        4.57748        1.51421
N          0.26360        5.92186        1.24715
C         -0.07798        6.47058        0.04151
N         -0.52435        7.70440        0.17258
C         -0.45053        7.96534        1.51948
C         -0.78308        9.07287        2.29081
N         -0.59467        9.03077        3.63562
C         -0.08334        7.89815        4.16782
N          0.28133        6.76656        3.52735
C          0.06058        6.87440        2.20711
C         -0.23468        3.73014        2.36580
O         -1.63117        3.98363        2.10652
C          0.08109        2.29245        1.93023
O         -1.12782        1.58100        1.66773
H          2.11715        0.17501       -0.26336
H          1.23144        1.85969       -1.37808
H         -0.35467        1.48657       -0.73657
H          2.02237        2.33685        1.00650
H          1.71607        4.64314        1.96439
H          0.00742        5.93242       -0.89447
H         -1.19686        9.98089        1.87211
H          0.04877        7.89989        5.24577
H         -0.07092        3.88131        3.43698
H         -1.73890        4.14808        1.14983
H          0.62770        1.74776        2.70745
H         -1.85414        2.10854        2.06052
