52

C          2.80684        0.17298       -0.02984
C          1.31053        0.10522       -0.00580
C          0.67407       -1.13679        0.00367
C         -0.72055       -1.22189        0.03310
C         -1.52424       -0.07005        0.05755
C         -3.05483       -0.12910        0.07474
O         -3.45545        0.48833       -1.15976
C         -3.61279       -1.56391        0.14134
C         -5.13318       -1.60694        0.22621
N         -5.65168       -0.78422        1.31290
C         -7.10130       -0.90370        1.50115
C         -8.05435       -0.21913        0.50111
C         -8.16504       -0.81884       -0.90122
C         -8.38211       -2.32226       -0.92756
O         -7.50001       -3.07715       -1.33106
C         -9.67644       -2.89575       -0.45197
C         -9.75375       -4.27889       -0.23702
C        -10.93708       -4.85492        0.22916
C        -12.04874       -4.05381        0.48247
C        -11.98356       -2.68010        0.25882
C        -10.80400       -2.10195       -0.21437
C         -5.17047        0.59434        1.30116
C         -3.64166        0.67245        1.25348
C         -0.86689        1.17375        0.01835
C          0.52921        1.26203       -0.00599
H          3.21841       -0.34244        0.84415
H          3.19081       -0.29971       -0.93951
H          3.16335        1.20752       -0.00827
H          1.25891       -2.05350       -0.01782
H         -1.15525       -2.21716        0.02459
H         -4.41729        0.41264       -1.24828
H         -3.31866       -2.12836       -0.75287
H         -3.20674       -2.08808        1.01698
H         -5.42940       -2.65115        0.38167
H         -5.52913       -1.29791       -0.74011
H         -7.36819       -1.96329        1.60031
H         -7.32718       -0.47997        2.48968
H         -9.04956       -0.22629        0.96107
H         -7.80026        0.84270        0.40468
H         -8.97382       -0.33567       -1.46091
H         -7.27050       -0.59046       -1.48875
H         -8.89106       -4.91531       -0.42806
H        -10.98940       -5.92816        0.39544
H        -12.96894       -4.50100        0.85029
H        -12.85336       -2.05652        0.45097
H        -10.79797       -1.03144       -0.39117
H         -5.50284        1.10600        2.21342
H         -5.58606        1.15255        0.45492
H         -3.22784        0.30132        2.20097
H         -3.37361        1.73357        1.18184
H         -1.44583        2.09429       -0.01575
H          0.99577        2.24355       -0.03480
