40

C          1.27734       -0.11776        0.33822
C          1.02026        1.37387        0.49222
C          1.55258        2.21785       -0.67025
C          1.03714        1.83814       -2.06235
C         -0.48567        1.79837       -2.21032
C         -1.17847        3.16566       -2.14375
C         -1.11530        3.98277       -3.44146
C         -1.83650        3.38022       -4.65520
N         -3.28422        3.50724       -4.55298
C         -4.05239        2.65574       -3.99433
O         -3.61358        1.52744       -3.39895
N         -5.41930        2.81229       -3.89139
C         -6.03337        2.57907       -2.66762
C         -7.34739        2.70354       -2.52574
F         -8.01058        2.54021       -1.37137
C         -8.05353        3.05256       -3.74445
O         -9.38248        3.11355       -3.59932
N         -7.55045        3.28248       -4.89904
C         -6.17215        3.16707       -5.02833
O         -5.67175        3.29114       -6.14268
H          0.72243       -0.53761       -0.50607
H          0.95530       -0.64920        1.23965
H          2.34214       -0.32014        0.18718
H         -0.05313        1.54744        0.62684
H          1.50293        1.71680        1.41533
H          1.32370        3.27081       -0.46997
H          2.64753        2.14481       -0.68284
H          1.46147        2.53143       -2.79794
H          1.43238        0.84883       -2.32455
H         -0.70675        1.30148       -3.15875
H         -0.91600        1.15167       -1.43805
H         -2.22699        3.02200       -1.86278
H         -0.74484        3.76114       -1.33245
H         -1.53350        4.97728       -3.23879
H         -0.06264        4.14002       -3.70503
H         -1.53553        3.96404       -5.53429
H         -1.51489        2.35919       -4.87647
H         -2.68954        1.36581       -3.62106
H         -5.39717        2.33270       -1.82414
H         -9.76854        3.31705       -4.46861
