19

O          0.99839        0.32462        0.48911
N          2.16053        0.09727        0.12353
O          2.76346       -0.96923        0.30629
C          2.86559        1.16677       -0.59065
C          4.03095        0.86976       -1.30654
C          4.68882        1.88949       -1.99308
C          4.18383        3.19210       -1.96379
C          3.01726        3.50140       -1.24695
P          2.40890        5.15253       -1.22723
O          3.31949        6.27787       -1.59500
O          1.06582        5.14726       -2.10755
O          1.74602        5.39190        0.21462
C          2.35805        2.47352       -0.55576
H          4.43442       -0.14052       -1.33815
H          5.59854        1.67302       -2.55001
H          4.71029        3.98351       -2.49922
H          0.62099        4.28293       -2.16729
H          1.50209        6.33288        0.31215
H          1.46232        2.70928        0.01838
