40

O          1.87215       -1.05720       -0.98636
C          2.87804       -0.58645       -0.47821
O          3.61784       -1.28131        0.41653
C          3.43342        0.79826       -0.74007
C          2.77628        1.51486       -1.92139
C          1.29081        1.92942       -1.79097
C          0.86785        3.08000       -0.79070
C          1.71870        4.28659       -1.29173
O          1.42836        5.09069       -2.16688
O          2.96242        4.36658       -0.76072
C         -0.67054        3.36242       -0.93411
C         -1.20213        4.66210       -0.82668
C         -2.58360        4.88922       -0.85509
C         -3.47001        3.82293       -0.96236
C         -2.97628        2.52827       -1.05135
C         -1.59707        2.30199       -1.03895
C          1.09305        2.73633        0.70684
C          0.82782        1.44512        1.20385
C          1.00718        1.12873        2.55245
C          1.42019        2.10742        3.44793
C          1.62847        3.40677        2.99832
C          1.45027        3.72122        1.64754
H          4.38342       -0.78341        0.76039
H          3.38425        1.39357        0.17315
H          4.49488        0.66861       -0.98602
H          3.38660        2.38379       -2.18749
H          2.84304        0.84644       -2.79107
H          0.99128        2.25857       -2.79891
H          0.71237        1.01957       -1.62067
H          3.36062        5.13070       -1.22938
H         -0.55668        5.52928       -0.71008
H         -2.96651        5.90364       -0.77847
H         -4.54203        3.99846       -0.96341
H         -3.66057        1.68584       -1.11309
H         -1.27107        1.26614       -1.07577
H          0.46384        0.65608        0.54955
H          0.80757        0.11767        2.89908
H          1.55371        1.86391        4.49813
H          1.91852        4.18395        3.70074
H          1.59237        4.75737        1.34895
