53

C          0.96116        0.07603       -0.05207
C         -0.34269        0.07603       -0.05207
C         -1.86269        0.07603       -0.05207
O         -2.63742       -0.99940        0.47109
C         -2.07319       -2.01018        1.16116
C         -1.11619       -2.86114        0.38827
O         -2.44113       -2.30524        2.29526
C         -2.67766        1.23506       -0.75928
C         -2.43011        2.69122       -0.11683
C         -1.12785        2.51406        0.61590
C         -0.10313        3.50118        1.28584
C          0.00305        4.89518        0.66994
C          1.26529        5.62389        1.16155
C          2.49405        4.95307        0.61296
C          3.34535        5.61160       -0.19614
C          4.55224        4.97099       -0.77280
O          5.30498        5.63051       -1.48711
C          4.83931        3.53602       -0.41589
C          3.56118        2.78656       -0.04189
C          2.66202        3.50846        1.02491
C          1.27948        2.75596        1.16826
C          1.24971        1.63329        2.22927
C         -0.13311        0.86293        2.40030
C         -1.43060        1.16692        1.40567
C         -2.61078        1.22465        2.39683
H          2.02374        0.00725       -0.11134
H         -0.14000       -2.84716        0.87798
H         -1.50740       -3.88232        0.35986
H         -1.01736       -2.52099       -0.64445
H         -2.39241        1.27849       -1.81523
H         -3.75282        1.02882       -0.71043
H         -2.36957        3.45269       -0.90009
H         -3.24133        2.98191        0.55798
H         -0.54521        2.30328       -0.29027
H         -0.35065        3.62874        2.34776
H          0.01721        4.83119       -0.42448
H         -0.87750        5.47900        0.95480
H          1.22788        6.67443        0.85278
H          1.32181        5.61807        2.25784
H          3.20792        6.65084       -0.47552
H          5.29198        3.05773       -1.29600
H          5.57162        3.51542        0.39613
H          2.98964        2.66056       -0.97477
H          3.82673        1.77822        0.29513
H          3.19159        3.48461        1.98566
H          1.25256        2.29921        0.18340
H          1.51264        2.07313        3.20098
H          2.06161        0.91472        2.04854
H         -0.43340        1.11395        3.42734
H          0.05521       -0.21913        2.45789
H         -2.49190        2.07806        3.07583
H         -3.58564        1.29899        1.91638
H         -2.62480        0.32085        3.01775
