16

O          1.21185       -0.19945        0.11290
N          2.40954        0.06978        0.08027
O          3.09634        0.40782       -0.88119
N          3.11529       -0.02839        1.22871
C          2.44192        0.38887        2.45598
C          2.57693       -0.70899        3.53123
N          3.95201       -0.98767        3.93687
N          4.47463       -0.19577        4.89215
O          5.63610        0.13732        4.67113
O          3.75912        0.09823        5.84693
H          3.94288        0.51907        1.02071
H          2.88021        1.32950        2.81058
H          1.37161        0.59119        2.32202
H          1.93225       -0.46482        4.38439
H          2.16688       -1.64088        3.12192
H          4.61035       -0.90635        3.17090
