41

C          0.96153       -0.17565       -0.03901
N          0.23570        0.02365       -1.29057
C         -0.43402       -1.16453       -1.82237
C          0.72965        0.93521       -2.23087
C         -0.03688        1.30422       -3.34810
C          0.40530        2.25851       -4.27786
C          1.63540        2.89747       -4.10978
C          2.06128        3.99696       -5.03460
N          1.22366        4.66216       -5.77334
C          3.48272        4.42073       -5.08868
C          3.79002        5.74713       -4.80151
C          5.11939        6.18611       -4.84948
C          6.18036        5.33220       -5.20191
N          7.49718        5.78607       -5.30352
C          7.86980        7.11193       -4.81649
C          8.58683        4.81895       -5.40704
C          5.82338        4.00032       -5.50242
C          4.49749        3.54016       -5.44540
C          2.42167        2.53588       -3.01330
C          1.97236        1.57206       -2.09612
H          0.35324       -0.75133        0.66789
H          1.17748        0.77938        0.45339
H          1.89567       -0.72291       -0.20477
H         -1.37648       -0.91029       -2.31728
H          0.21383       -1.69853       -2.52659
H         -0.69226       -1.86187       -1.01707
H         -1.02799        0.88365       -3.49619
H         -0.24472        2.48777       -5.11650
H          0.25794        4.36204       -5.64585
H          2.99718        6.44666       -4.54807
H          5.29008        7.23141       -4.61432
H          7.88932        7.13124       -3.72169
H          8.86703        7.39098       -5.17634
H          7.20087        7.89549       -5.18583
H          8.57157        4.11386       -4.56864
H          8.53092        4.26904       -6.35259
H          9.56500        5.31323       -5.39583
H          6.57680        3.28175       -5.81189
H          4.27312        2.51010       -5.70589
H          3.38216        3.00802       -2.82544
H          2.63218        1.33677       -1.26599
