13

O          1.12218       -0.37145        0.26103
C          2.30324       -0.13736        0.03899
O          3.02158        0.70836        0.81483
C          3.10938       -0.78547       -1.09120
O          2.79832       -2.16587       -1.25522
C          2.78623       -0.04578       -2.38675
O          3.26061        1.29745       -2.32441
H          3.94634        0.83415        0.52273
H          4.17731       -0.71189       -0.86082
H          2.70275       -2.54992       -0.36437
H          3.27271       -0.54032       -3.23511
H          1.70935       -0.04782       -2.59672
H          2.47566        1.87723       -2.34989
