9

Cl         0.97326        0.01042        0.46060
C          2.66080       -0.03279       -0.08008
O          3.17044        1.28460       -0.22241
C          2.77606        1.91213       -1.43336
Cl         3.78984        1.35022       -2.77503
H          3.23790       -0.53581        0.70002
H          2.73854       -0.61803       -1.00182
H          1.72084        1.74625       -1.67233
H          2.94425        2.98693       -1.32802
