30

O          1.25208        0.17815       -0.48618
S          2.69996        0.10883       -0.50370
O          3.45126        0.78934       -1.52873
N          3.16880        0.55590        1.00317
S          4.69758        0.90201        1.48401
O          5.49313        1.35989        0.37085
O          4.57064        1.68539        2.69417
C          5.36992       -0.66418        1.99728
C          4.56028       -1.61683        2.62473
C          5.10167       -2.86046        2.96158
C          6.44363       -3.13462        2.69085
Cl         7.10013       -4.66953        3.10275
C          7.25579       -2.17482        2.08762
C          6.71825       -0.93622        1.73307
C          3.12433       -1.61549       -0.55377
C          2.17901       -2.57488       -0.17243
C          2.52557       -3.92716       -0.19468
C          3.80454       -4.30945       -0.60171
Cl         4.23643       -5.97372       -0.59816
C          4.73525       -3.35323       -1.01095
C          4.39229       -1.99961       -1.00223
H          2.43550        0.95146        1.57716
H          3.51755       -1.41409        2.85169
H          4.47568       -3.61436        3.43339
H          8.30432       -2.38543        1.88977
H          7.35561       -0.19148        1.25837
H          1.17683       -2.28480        0.13753
H          1.79622       -4.67752        0.10195
H          5.72737       -3.65692       -1.33668
H          5.11815       -1.25766       -1.33232
