35

O          0.92991       -0.06725       -0.02378
P          2.47826       -0.06725       -0.02378
O          2.54650       -0.75495       -1.53527
C          1.68232       -1.82387       -1.93418
C          2.05292       -3.16375       -1.28887
Br         1.01133       -3.40285        0.36860
C          1.77372       -4.37493       -2.16457
Br         3.12074       -4.51792       -3.57251
O          2.63137        1.51413       -0.52544
C          1.68227        2.46862       -0.07443
C          0.67357        2.94345       -1.13705
Br         0.61068        1.83097       -2.75419
C         -0.74515        3.05115       -0.59448
Br        -0.89675        4.54834        0.64940
O          4.20826       -0.06725       -0.02378
C          5.02460       -0.99417       -0.72482
C          5.77548       -1.97352        0.17990
Br         4.59254       -2.66379        1.59229
C          6.31295       -3.16691       -0.60208
Br         7.96457       -2.70526       -1.52463
H          0.63018       -1.55830       -1.79020
H          1.81694       -1.88840       -3.01854
H          3.09052       -3.17076       -0.95447
H          1.86073       -5.31474       -1.60933
H          0.79512       -4.33702       -2.65047
H          1.18794        2.11433        0.83780
H          2.25789        3.34248        0.25432
H          1.00329        3.91281       -1.52890
H         -1.48066        3.25784       -1.37855
H         -1.05958        2.15377       -0.05233
H          4.49463       -1.53901       -1.50805
H          5.76289       -0.39233       -1.26571
H          6.56270       -1.45202        0.73756
H          6.56086       -4.02235        0.03155
H          5.61623       -3.50975       -1.37644
