14

N          1.23735        0.02290        0.01084
C          2.39703        0.05175        0.01212
C          3.83035        0.08307        0.01401
C          4.50364        1.30958        0.01399
C          5.90115        1.33913        0.01650
Br         6.76302        3.02876        0.01618
C          6.63010        0.14687        0.01926
O          7.99857        0.19355        0.02251
C          5.95245       -1.07629        0.01889
Br         6.90740       -2.71422        0.02217
C          4.55651       -1.11279        0.01618
H          3.93902        2.24080        0.01216
H          8.33671       -0.72036        0.02558
H          4.03314       -2.06767        0.01592
