26

C          1.01426       -0.04609       -0.07444
C          0.88796       -0.85242        1.20809
O          1.23671       -0.07774        2.36460
C          2.54139        0.26330        2.51604
O          3.46200       -0.10691        1.80128
C          2.70378        1.20539        3.68262
C          2.31811        2.62703        3.30383
C          0.85133        2.88098        3.54653
O          0.40926        3.45332        4.53266
O          0.10987        2.35776        2.53762
C         -1.31712        2.38240        2.68711
C         -1.79067        1.42940        3.77272
H          0.54559        0.93754        0.02984
H          0.54783       -0.57597       -0.90997
H          2.06403        0.12550       -0.33113
H         -0.16100       -1.13952        1.34011
H          1.47853       -1.77363        1.17465
H          2.14037        0.82347        4.54111
H          3.76366        1.17693        3.96427
H          2.86833        3.33557        3.93526
H          2.56434        2.87498        2.26548
H         -1.66436        3.40639        2.85854
H         -1.72864        2.05261        1.72686
H         -1.53820        1.80785        4.76790
H         -2.87632        1.30370        3.72807
H         -1.31408        0.44911        3.67293
