40

C         -0.36317        0.06727       -0.41663
N         -0.59684        1.21858        0.43765
C         -2.02705        1.41333        0.65185
C          0.19681        1.35749        1.67148
C          0.63344        0.14319        2.52750
C          1.57798       -0.91895        1.92467
N          3.00875       -0.81024        2.35551
C          3.50191       -1.82427        3.24401
C          2.65653       -2.70823        3.95315
C          3.14542       -3.78711        4.70892
C          4.50892       -3.99884        4.82231
C          5.37391       -3.09900        4.21984
C          4.88608       -2.01462        3.46034
S          6.14447       -0.91793        2.86274
C          5.24822        0.08121        1.71139
C          6.05055        0.93495        0.92236
C          5.49714        1.76229       -0.04474
C          4.13044        1.71830       -0.23675
Cl         3.39591        2.71708       -1.43018
C          3.34150        0.86172        0.53243
C          3.84788        0.03019        1.54945
H         -0.95771        0.13706       -1.33554
H         -0.62729       -0.87493        0.07441
H          0.66989        0.02545       -0.76770
H         -2.45671        0.63011        1.28344
H         -2.22313        2.38995        1.10703
H         -2.56240        1.41810       -0.30604
H          1.07276        1.96841        1.43729
H         -0.35923        2.02025        2.35173
H          1.08501        0.53709        3.44870
H         -0.28791       -0.36116        2.84763
H          1.15295       -1.89097        2.19102
H          1.53208       -0.98532        0.83995
H          1.57735       -2.59457        3.95378
H          2.45303       -4.46156        5.20653
H          4.89853       -4.83625        5.39392
H          6.44658       -3.24303        4.34436
H          7.13159        0.95228        1.05986
H          6.12402        2.41542       -0.64024
H          2.29404        0.86459        0.28224
