46

O          1.07296       -0.00482        0.06822
P          2.62131       -0.00482        0.06822
O          2.65452        1.63262        0.14806
O          2.55361       -0.21755        1.68452
O          4.35131       -0.00482        0.06822
P          4.92797        0.51666        1.61367
O          5.03376       -0.94854        2.07774
O          6.38945        0.79709        0.91126
O          5.50463        1.03814        3.15912
P          5.90759        2.60008        2.98941
O          7.33590        2.91940        2.68905
O          4.93727        3.12161        1.80936
O          5.20937        3.46458        4.14621
C          5.99232        4.51900        4.71344
C          6.14695        4.18305        6.17894
O          6.46243        2.77910        6.28487
C          6.94423        2.61520        7.61911
N          7.53510        1.31225        7.74957
C          7.82886        0.41124        6.76301
N          8.39959       -0.67094        7.25093
C          8.43489       -0.47374        8.61315
C          8.89080       -1.21824        9.69475
O          9.47799       -2.44512        9.57930
N          8.78066       -0.75637       10.95546
C          8.21134        0.45818       11.11401
N          7.73358        1.29003       10.16525
C          7.88462        0.75367        8.94239
C          7.88073        3.81379        7.82460
O          9.22748        3.61401        7.35613
C          7.23316        4.91757        6.96793
O          8.19517        5.55127        6.12595
H          1.71190        1.88692        0.24744
H          1.75745       -0.75673        1.87686
H          6.45732        1.67019        0.48104
H          4.08614        3.43841        2.17629
H          6.96105        4.60163        4.21549
H          5.46931        5.46975        4.57139
H          5.17642        4.30734        6.67717
H          6.07681        2.66543        8.29021
H          7.61284        0.58551        5.71388
H          9.67144       -2.64249       10.51045
H          8.12686        0.81335       12.13712
H          7.93948        4.09894        8.87906
H          9.21907        2.95680        6.63293
H          6.77737        5.69773        7.58531
H          9.07277        5.20728        6.40282
