22

C          0.74898       -0.45261        0.42171
C          0.05571        0.44498        1.43538
C          0.74292        1.78581        1.67489
C          0.40722        2.87572        0.67245
O         -0.30228        3.82591        1.01412
C          0.93924        2.80355       -0.74784
C          2.43546        3.06092       -0.89791
C          3.31782        1.84837       -0.64300
H          0.61812       -0.09247       -0.59974
H          0.31917       -1.45895        0.45805
H          1.81981       -0.53779        0.62862
H         -0.98853        0.59406        1.13940
H          0.04217       -0.09693        2.38959
H          0.39367        2.16170        2.64701
H          1.82285        1.68643        1.78406
H          0.62643        1.87557       -1.22642
H          0.41538        3.59697       -1.29950
H          2.61605        3.37911       -1.93256
H          2.75163        3.88689       -0.25132
H          2.96442        0.97275       -1.19539
H          4.34286        2.05756       -0.96597
H          3.36851        1.59561        0.41706
