13

O          1.01923       -0.05024        0.10390
C          0.34542        1.12513        0.25798
C         -0.76455        1.12703        1.09631
C         -1.47801        2.30943        1.28207
Cl        -2.85164        2.32373        2.31868
C         -1.08928        3.48171        0.63662
C          0.02474        3.46011       -0.20095
Cl         0.51357        4.90223       -1.00407
C          0.74971        2.28414       -0.39677
H          1.77518        0.08724       -0.49155
H         -1.06520        0.21165        1.59827
H         -1.64823        4.40129        0.78487
H          1.61456        2.28483       -1.05259
