16

C          2.18605       -0.67614       -0.00870
C          2.14555        0.71673       -0.01269
C          0.92716        1.40302       -0.01540
C         -0.24591        0.63905       -0.01453
N         -1.56492        1.03373       -0.01691
C         -2.38750       -0.06170       -0.01608
C         -1.59204       -1.18482       -0.01193
C         -0.23583       -0.75611       -0.01092
C          1.00332       -1.42494       -0.00760
H          3.14470       -1.18885       -0.00657
H          3.07590        1.28012       -0.01376
H          0.89963        2.48753       -0.01838
H         -1.87409        1.99564       -0.01942
H         -3.46302        0.05204       -0.01847
H         -1.94447       -2.20771       -0.01024
H          1.04280       -2.50995       -0.00452
