26

N          0.97789        0.10044        0.09858
C          0.35056       -1.01333        0.52321
O         -0.87144       -1.09137        0.52129
N          1.12228       -2.03477        0.95204
C          2.55056       -2.06445        1.21132
C          2.86406       -2.06909        2.70780
C          2.43778       -3.34208        3.45127
C          3.07739       -4.65029        2.96582
C          4.60369       -4.67695        2.95458
C          5.19486       -4.70740        4.33564
O          5.60019       -5.69596        4.92343
O          5.24372       -3.49427        4.91451
H          0.34075        0.77694       -0.30316
H          1.82578       -0.02683       -0.43117
H          0.56903       -2.82412        1.26214
H          2.94952       -2.95475        0.71736
H          3.03552       -1.19727        0.75543
H          3.93983       -1.91157        2.84340
H          2.36872       -1.21231        3.18204
H          2.65765       -3.20945        4.51726
H          1.34791       -3.44900        3.38834
H          2.70936       -5.46443        3.60346
H          2.71645       -4.87154        1.95467
H          4.94072       -5.58960        2.44692
H          5.03775       -3.84743        2.38806
H          5.62377       -3.66847        5.80152
