33

O          1.22865       -0.04158        0.01861
S          2.67987       -0.10203       -0.00235
O          3.29340       -1.37609       -0.33246
N          3.15270        0.93990       -1.24800
C          4.57039        1.31098       -1.54260
C          5.59321        0.16655       -1.58228
O          5.53511       -0.55626       -2.80260
C          2.24732        1.00556       -2.44901
C          2.48825       -0.09639       -3.48784
O          2.30003       -1.41575       -2.99397
C          3.25567        0.54552        1.64203
F          2.97744        1.87942        1.76243
F          2.54267       -0.07080        2.63624
C          4.72662        0.29919        1.85332
F          5.07372       -0.97857        1.55715
F          5.45001        1.08872        1.01632
C          5.12600        0.59533        3.27829
F          4.68744        1.82621        3.66043
F          4.54434       -0.29536        4.12815
C          6.63945        0.52591        3.38840
F          7.13231       -0.67097        2.99643
F          7.24299        1.47061        2.62596
F          7.05733        0.72979        4.66056
H          4.60850        1.82926       -2.50891
H          4.86192        2.06411       -0.80482
H          6.59765        0.59877       -1.52391
H          5.51159       -0.53848       -0.75634
H          4.92358       -1.30573       -2.67564
H          1.20148        0.98412       -2.12809
H          2.38279        1.98441       -2.92588
H          1.78075        0.03488       -4.31304
H          3.48461       -0.02221       -3.92644
H          2.73054       -1.50758       -2.12329
