19

C          2.51630       -0.03467       -0.11693
C          1.01415        0.03440       -0.06317
C          0.27343       -1.16035       -0.07922
C         -1.12547       -1.14552       -0.03943
C         -1.81501        0.06416        0.03065
C         -1.09051        1.26166        0.06705
N         -1.83328        2.50067        0.19646
O         -2.78134        2.67211       -0.57955
O         -1.49759        3.26394        1.10925
C          0.30609        1.25054        0.02565
N          1.03128        2.50514       -0.00209
O          0.83911        3.23170       -0.98461
O          1.80880        2.73084        0.93252
H          2.93962        0.17478        0.87021
H          2.85639       -1.02904       -0.42609
H          2.91500        0.67680       -0.84710
H          0.78435       -2.12208       -0.13215
H         -1.67647       -2.08457       -0.06127
H         -2.90327        0.06376        0.06571
