30

C          0.80442        0.27044        0.65820
C          0.25149        1.43103       -0.14486
N          0.89393        1.81101       -1.43764
C          0.82403        3.16549       -1.78777
C          1.16018        3.75075       -2.94653
C          1.03349        5.20967       -3.14464
O          1.29026        5.84813       -4.14571
O          0.58652        5.86212       -2.04943
C          1.65261        2.85410       -4.00935
O          1.93441        3.25822       -5.13216
C          1.80272        1.41371       -3.68481
C          2.39553        0.60203       -4.67351
C          2.59027       -0.71916       -4.37616
C          2.16107       -1.24130       -3.18702
C          1.52796       -0.47310       -2.22299
C          1.37335        0.90859       -2.41495
O          2.46322       -2.56420       -3.06634
C          3.25859       -2.76347       -4.25461
O          3.21444       -1.63868       -5.15598
H          0.29657       -0.66191        0.39075
H          0.58292        0.41480        1.72206
H          1.88650        0.15546        0.55630
H         -0.82466        1.29854       -0.30637
H          0.34695        2.29421        0.53032
H          0.43609        3.78185       -0.97865
H          0.57696        6.79674       -2.34903
H          2.72266        1.00886       -5.62526
H          1.22123       -0.99818       -1.33668
H          4.30108       -2.92808       -3.95271
H          2.89915       -3.65539       -4.77802
