41

N         -2.66963       -0.51905       -0.34043
C         -1.31420       -0.52296       -0.89368
C         -0.44535       -1.51703       -0.10886
C          1.04217       -1.41435       -0.46060
C          1.52950        0.03617       -0.29891
C          3.05498        0.15654       -0.45307
C          3.81493        1.17359        0.44754
C          3.94698        0.75701        1.92200
C          2.70974        1.01255        2.77416
C          2.13483        2.42493        2.61396
N          0.76774        2.44583        3.15105
C          2.12330        2.97375        1.18347
C          3.35976        2.63280        0.35750
C          0.74022        0.90116       -1.29440
C         -0.73780        0.89931       -0.89555
H         -2.63628       -0.28925        0.65509
H         -3.22157        0.21527       -0.77721
H         -1.37694       -0.86646       -1.93367
H         -0.55466       -1.34231        0.97038
H         -0.79194       -2.54128       -0.29492
H          1.20710       -1.75934       -1.48918
H          1.60735       -2.08381        0.19829
H          1.24931        0.34373        0.70588
H          3.51249       -0.82480       -0.26803
H          3.28678        0.38986       -1.50077
H          4.84143        1.15533        0.05006
H          4.77784        1.32581        2.36233
H          4.23370       -0.29855        1.99583
H          2.97131        0.85686        3.82971
H          1.96115        0.24209        2.56412
H          2.74078        3.10435        3.22537
H          0.32659        3.33894        2.93423
H          0.20665        1.74215        2.66781
H          1.22615        2.63725        0.66327
H          2.02448        4.06739        1.22212
H          4.18328        3.26468        0.71858
H          3.20476        2.91888       -0.68922
H          0.85094        0.51079       -2.31382
H          1.10943        1.92910       -1.32288
H         -1.30349        1.53594       -1.58610
H         -0.84086        1.35017        0.10127
