29

C          0.82997       -0.28878        0.02248
C          0.35939        0.33061        1.32960
C          0.84798        1.76992        1.52952
C          0.36370        2.79197        0.47976
C         -1.16665        2.90237        0.47100
C          0.96355        4.19676        0.72666
C          2.50236        4.29936        0.67723
C          3.08297        3.79951       -0.64601
C          2.93010        5.75124        0.91267
H          0.37082        0.20005       -0.84160
H          0.55594       -1.34800       -0.01206
H          1.91795       -0.21769       -0.07670
H         -0.73241        0.27757        1.39241
H          0.74354       -0.27790        2.15761
H          0.53513        2.10414        2.52700
H          1.94319        1.74360        1.54354
H          0.66939        2.46109       -0.51832
H         -1.55062        3.17370        1.46013
H         -1.49746        3.66681       -0.24069
H         -1.63391        1.96050        0.16865
H          0.54654        4.88755       -0.01925
H          0.61958        4.56147        1.70394
H          2.93184        3.70255        1.49004
H          2.63610        4.32262       -1.49825
H          4.16586        3.96059       -0.68097
H          2.91343        2.72635       -0.77587
H          2.55368        6.11683        1.87381
H          4.02188        5.83704        0.92847
H          2.55022        6.41110        0.12512
