27

N          2.34311       -0.01264       -0.11283
C          0.95272       -0.00188        0.04029
C          0.21236       -1.16465       -0.16729
C         -1.18716       -1.13349       -0.15090
C         -1.87960        0.06999        0.03348
S         -3.66473       -0.01357        0.03474
C         -4.21977        1.67452        0.00900
C         -4.03429        2.48757       -1.11194
C         -4.48679        3.81173       -1.10570
C         -5.18702        4.32260       -0.01039
N         -5.52495        5.67960        0.04131
C         -5.33663        3.51828        1.12102
C         -4.87832        2.19687        1.12453
C         -1.13422        1.23995        0.20030
C          0.26669        1.20577        0.17154
H          2.77266       -0.90398        0.11477
H          2.81137        0.76563        0.34051
H          0.71575       -2.11126       -0.34462
H         -1.73085       -2.06459       -0.29658
H         -3.51596        2.10725       -1.98894
H         -4.28905        4.44003       -1.97010
H         -6.27907        5.88804        0.68860
H         -5.67752        6.09852       -0.87080
H         -5.81561        3.91154        2.01376
H         -5.03019        1.58593        2.01115
H         -1.61446        2.20309        0.34395
H          0.81578        2.13980        0.25816
