60

C          1.12224        0.57726        0.52731
C          0.75637        1.48163       -0.64028
C          1.05078        0.86770       -2.01024
C          0.45631       -0.52104       -2.25110
C         -1.07373       -0.60309       -2.18103
C         -1.80050       -0.05361       -3.41140
C         -1.55586       -0.83190       -4.70307
O         -2.07930       -2.16987       -4.64643
C         -1.18691       -3.14582       -4.36421
O         -0.04542       -3.03143       -3.94424
C         -1.77769       -4.45150       -4.66169
C         -1.96223       -5.34316       -3.59673
C         -2.46622       -6.62034       -3.84203
C         -2.77529       -7.00994       -5.14595
C         -2.59029       -6.12054       -6.20852
C         -2.08082       -4.83528       -5.97386
C         -1.90423       -3.93995       -7.13858
O         -2.67861       -3.92293       -8.08323
O         -0.76430       -3.22656       -7.01046
C         -0.47798       -2.23673       -8.01120
C          0.77892       -2.63023       -8.78121
C          0.64707       -3.95029       -9.54598
C         -0.38868       -3.93083      -10.67411
C         -0.02203       -3.05352      -11.87427
C          1.24930       -3.46582      -12.62025
C          1.22865       -4.90950      -13.09995
H          0.47819       -0.30678        0.56588
H          0.99796        1.11380        1.47285
H          2.16267        0.24441        0.45771
H         -0.30110        1.75789       -0.56997
H          1.32571        2.41474       -0.55321
H          0.70904        1.55705       -2.79114
H          2.13966        0.79121       -2.12833
H          0.81696       -0.86411       -3.22489
H          0.87512       -1.22504       -1.52262
H         -1.36605       -1.64874       -2.03264
H         -1.43791       -0.07425       -1.29393
H         -2.87643       -0.07115       -3.19761
H         -1.52232        0.99489       -3.56706
H         -2.09606       -0.33291       -5.51617
H         -0.50075       -0.82625       -4.99660
H         -1.70885       -5.04467       -2.58144
H         -2.61085       -7.31530       -3.01754
H         -3.15710       -8.01081       -5.33673
H         -2.83032       -6.43729       -7.22225
H         -1.32768       -2.04835       -8.67466
H         -0.28514       -1.29891       -7.47897
H          1.06177       -1.81923       -9.46054
H          1.60170       -2.74472       -8.06381
H          1.62962       -4.22564       -9.94463
H          0.38106       -4.74800       -8.84216
H         -0.55590       -4.95999      -11.01133
H         -1.35661       -3.59379      -10.29136
H         -0.86234       -3.07543      -12.57978
H          0.07641       -2.00899      -11.55644
H          1.36542       -2.80906      -13.49072
H          2.13061       -3.30235      -11.99054
H          0.32406       -5.11871      -13.67974
H          2.09575       -5.10856      -13.73702
H          1.27092       -5.60996      -12.26018
