47

C          0.93398       -0.55825        0.34586
C          0.68737        0.96440        0.35281
C          1.69293        1.58502       -0.60683
C         -0.80746        1.29799        0.04185
C         -1.69417        0.55290        1.07759
C         -2.83479        1.46406        1.47742
C         -2.83298        2.60234        0.46385
C         -3.58169        3.80741        1.07584
C         -3.87864        4.94379        0.13057
C         -4.71538        4.76221       -0.97997
C         -4.93459        5.81062       -1.87699
C         -4.33009        7.04762       -1.66075
Cl        -4.58544        8.33033       -2.77843
C         -3.51682        7.24972       -0.54932
C         -3.29598        6.20222        0.34658
C         -1.31583        2.78311        0.08775
O         -0.66854        3.51000        1.12749
C         -1.27216        3.56990       -1.25667
N         -0.01615        3.87410       -1.89733
C          0.39378        3.44481       -3.12669
N          1.47907        4.09311       -3.48411
C          1.66191        4.96903       -2.45338
N          0.75508        4.89700       -1.47675
H          0.62767       -1.00263       -0.60709
H          0.39194       -1.06647        1.14836
H          1.99534       -0.78439        0.49863
H          0.93121        1.32696        1.35965
H          1.43544        1.36338       -1.64614
H          1.76049        2.66064       -0.45067
H          2.70178        1.19277       -0.43414
H         -1.05557        0.89046       -0.94860
H         -1.14331        0.28531        1.98691
H         -2.07308       -0.37973        0.64408
H         -2.66631        1.83754        2.49516
H         -3.79126        0.92994        1.48539
H         -3.37557        2.24572       -0.42335
H         -4.54927        3.46297        1.46789
H         -3.03591        4.18187        1.95119
H         -5.19451        3.80263       -1.16019
H         -5.57260        5.65679       -2.74306
H         -3.03968        8.21125       -0.37992
H         -2.63709        6.36540        1.19813
H         -0.58406        2.94825        1.91564
H         -1.88393        3.04686       -2.00279
H         -1.71740        4.55538       -1.11927
H         -0.11975        2.68679       -3.69904
H          2.47179        5.68604       -2.41701
