35

C          0.92040       -0.39680       -0.47492
C          0.51130        0.95742       -1.05669
C          0.85482        1.00022       -2.54727
C         -0.98253        1.26609       -0.84334
C         -1.38991        1.55326        0.60481
O         -0.81837        2.77968        1.09855
C          0.28202        2.63191        1.86690
O          0.93623        1.62424        2.07445
C          0.63283        3.89358        2.52069
C          1.73995        4.60999        2.03622
C          2.37576        4.33082        0.73559
O          3.56695        4.37418        0.49831
O          1.45587        4.19487       -0.22996
C          2.30389        5.64769        2.79418
C          1.75378        5.99645        4.02420
C          0.62774        5.32170        4.49458
C          0.06567        4.26502        3.74926
N         -1.10968        3.58816        4.31762
O         -1.70721        4.17367        5.23259
O         -1.44694        2.48783        3.87098
H          0.44614       -1.22277       -1.01481
H          0.65114       -0.48901        0.58027
H          2.00606       -0.52728       -0.54659
H          1.11157        1.72891       -0.57071
H          0.33387        0.21176       -3.10029
H          0.57621        1.96497       -2.98438
H          1.93167        0.86772       -2.69767
H         -1.24998        2.14278       -1.44642
H         -1.58110        0.42507       -1.21621
H         -2.47653        1.69516        0.63633
H         -1.17678        0.70848        1.26912
H          1.97363        4.07582       -1.05516
H          3.18203        6.17892        2.42706
H          2.20311        6.79133        4.61679
H          0.21481        5.61268        5.46051
