51

C          1.21856        0.38847        0.44107
C          1.01476        0.92999       -0.96571
C          1.45201       -0.05140       -2.05623
C          0.70777       -1.39114       -2.05332
C         -0.80632       -1.28055       -2.26291
C         -1.21604       -0.68934       -3.61613
C         -0.72615       -1.49019       -4.82824
C         -1.24334       -2.93325       -4.88520
C         -2.76903       -3.05764       -4.96750
C         -3.38536       -2.37727       -6.19270
C         -3.01310       -3.04070       -7.52360
C         -3.68894       -4.39670       -7.76945
C         -5.22543       -4.38188       -7.77896
C         -5.81372       -3.64907       -8.96093
C         -5.87205       -2.24796       -8.98885
C         -6.34115       -1.57658      -10.11798
C         -6.79356       -2.29836      -11.21793
C         -6.77956       -3.69197      -11.18809
C         -6.28600       -4.36361      -10.06825
H          0.57869       -0.47735        0.63581
H          0.96890        1.15511        1.18078
H          2.26018        0.09045        0.59724
H         -0.03479        1.21288       -1.10141
H          1.59802        1.85201       -1.07417
H          1.33931        0.43351       -3.03302
H          2.52474       -0.25138       -1.94368
H          1.14367       -2.03473       -2.82606
H          0.89418       -1.91350       -1.10832
H         -1.24920       -2.27652       -2.14750
H         -1.24949       -0.67486       -1.46455
H         -2.30855       -0.60352       -3.64569
H         -0.84357        0.33805       -3.69893
H         -1.01011       -0.95519       -5.74134
H          0.36919       -1.50900       -4.84242
H         -0.78355       -3.43594       -5.74305
H         -0.89390       -3.48757       -4.00688
H         -3.04005       -4.11931       -4.95494
H         -3.22051       -2.63005       -4.06476
H         -4.47180       -2.35178       -6.06572
H         -3.08502       -1.32468       -6.22805
H         -3.25479       -2.35529       -8.34228
H         -1.92782       -3.17505       -7.58753
H         -3.32528       -4.79226       -8.72662
H         -3.35340       -5.10503       -7.00273
H         -5.57294       -5.42345       -7.80018
H         -5.63248       -3.97075       -6.84916
H         -5.52964       -1.66345       -8.13945
H         -6.34585       -0.48971      -10.13793
H         -7.15796       -1.77620      -12.09806
H         -7.14456       -4.25678      -12.04085
H         -6.26928       -5.45135      -10.06803
