13

C          1.12238       -0.07410        0.01386
S          0.22161       -0.84116        1.38413
C          0.89332       -2.52238        1.28587
S          0.42363       -3.41423       -0.22131
C         -1.35720       -3.57283        0.06348
H          0.93021        1.00208        0.02353
H          0.78147       -0.46926       -0.94620
H          2.19844       -0.23333        0.12119
H          1.98530       -2.47340        1.34255
H          0.55377       -3.09101        2.15666
H         -1.55423       -4.02133        1.04036
H         -1.85110       -2.60074       -0.00665
H         -1.78120       -4.22329       -0.70663
