27

C          1.17830       -0.13989        0.01360
C          0.63352       -0.27936       -1.41198
N          0.89941       -1.68426       -1.85393
C         -0.89681       -0.02764       -1.49066
C         -1.41436        1.27177       -0.90367
C         -1.03891        2.51864       -1.42529
C         -1.50636        3.70513       -0.85460
C         -2.38145        3.64840        0.22232
O         -2.85418        4.78249        0.81233
C         -2.80289        2.42660        0.72809
C         -2.31862        1.24144        0.16991
C          1.38945        0.66497       -2.37048
O          2.17921        1.54903       -2.08032
O          1.11516        0.41356       -3.67343
H          0.68421       -0.83509        0.70181
H          1.03849        0.87473        0.40265
H          2.25626       -0.34054        0.04968
H          0.66294       -1.74231       -2.84855
H          1.90400       -1.85947       -1.80522
H         -1.24103       -0.07572       -2.53294
H         -1.40641       -0.85876       -0.98129
H         -0.37809        2.59339       -2.28363
H         -1.17968        4.65445       -1.26686
H         -2.41350        5.54622        0.40524
H         -3.50254        2.39495        1.55827
H         -2.65684        0.29311        0.58259
H          1.65074        1.07672       -4.15827
