13

O         -4.04268        0.03534       -0.01315
C         -2.68020       -0.00311        0.00131
C         -1.99953        1.21019        0.00772
C         -0.60418        1.22054        0.02085
C          0.09332        0.01290        0.02777
Br         1.98379        0.02199        0.04431
C         -0.59232       -1.20276        0.02227
C         -1.98902       -1.21181        0.00895
H         -4.38091       -0.87506       -0.02315
H         -2.55409        2.14444        0.00204
H         -0.07523        2.16951        0.02527
H         -0.04916       -2.14405        0.02806
H         -2.51427       -2.16162        0.00482
