22

Cl        -2.11377        0.05470       -0.14714
C         -0.39545        0.02352       -0.07218
C          0.27563       -1.19599       -0.06729
C          1.67258       -1.21942       -0.00714
C          2.41523       -0.02751        0.05089
C          3.88497       -0.05427        0.11582
C          4.63997       -0.72708       -0.85925
C          6.03593       -0.75239       -0.79845
C          6.70036       -0.10621        0.24083
C          5.97071        0.56577        1.21817
C          4.57488        0.59197        1.15497
C          1.71404        1.19064        0.04553
C          0.31723        1.21790       -0.01661
H         -0.27744       -2.13038       -0.10715
H          2.18266       -2.18101        0.00697
H          4.14129       -1.22938       -1.68581
H          6.60254       -1.27494       -1.56476
H          7.78594       -0.12631        0.28910
H          6.48602        1.06830        2.03257
H          4.02374        1.11357        1.93496
H          2.25790        2.13308        0.07767
H         -0.20299        2.17178       -0.02365
