32

C         -0.42166        0.42388       -1.32851
O          0.82522        0.99580       -1.71699
C          0.95468        2.32412       -1.41214
C         -0.02370        3.23358       -1.84261
C          0.13208        4.60334       -1.62489
C          1.28217        5.07868       -1.00584
C          2.26010        4.17978       -0.58187
C          2.10364        2.79707       -0.75908
O          3.12987        2.08959       -0.19172
C          3.04442        0.67530       -0.02116
C          2.33364        0.27093        1.28542
O          1.07027        0.92534        1.44274
C          2.07954       -1.23888        1.36528
O          3.29859       -1.98392        1.53128
C          4.06130       -2.47382        0.52619
N          3.55492       -2.41400       -0.73205
O          5.16849       -2.94960        0.72842
H         -1.13457        0.47818       -2.15585
H         -0.83922        0.88628       -0.42812
H         -0.23951       -0.63316       -1.10942
H         -0.90803        2.88658       -2.36938
H         -0.63469        5.29905       -1.95590
H          1.42239        6.14550       -0.85239
H          3.15690        4.55880       -0.09549
H          2.65110        0.17484       -0.90506
H          4.08284        0.32963        0.04440
H          2.95864        0.58401        2.12997
H          1.25665        1.88305        1.42829
H          1.46814       -1.44762        2.25223
H          1.47595       -1.60024        0.52643
H          4.13540       -2.81371       -1.45731
H          2.60446       -2.18764       -0.96698
