30

C          1.14392       -0.22224        0.22032
C          0.41232        0.18956       -0.82321
C         -1.07373        0.40886       -0.77616
C         -1.48128        1.86634       -1.02581
C         -1.10760        2.43229       -2.40266
C         -1.69273        1.67709       -3.60099
C         -3.22288        1.67649       -3.68297
C         -3.86714        3.05621       -3.86179
C         -3.43027        3.82802       -5.11040
C         -3.76412        3.11341       -6.41121
H          0.69649       -0.42288        1.18857
H          2.21529       -0.36865        0.12311
H          0.91184        0.36390       -1.77372
H         -1.55190       -0.25277       -1.50670
H         -1.46550        0.10719        0.20356
H         -2.56394        1.95636       -0.87791
H         -1.02033        2.50087       -0.25759
H         -1.41883        3.48269       -2.44312
H         -0.01585        2.44817       -2.50298
H         -1.27709        2.10607       -4.51995
H         -1.34389        0.63828       -3.58522
H         -3.52575        1.02689       -4.51263
H         -3.63942        1.21104       -2.78212
H         -4.95631        2.92571       -3.89233
H         -3.66361        3.67303       -2.97875
H         -3.93587        4.80125       -5.10975
H         -2.35644        4.04052       -5.07393
H         -4.83571        2.89979       -6.47658
H         -3.49140        3.74063       -7.26595
H         -3.21680        2.17104       -6.50567
