23

O         -0.53286        0.53291       -0.63763
C          0.60072        0.17297       -0.90915
O          1.06214       -1.04776       -0.56467
C          1.59554        1.05115       -1.68417
O          2.99471        0.80820       -1.73756
N          3.30516       -0.53678       -2.04376
C          4.42940       -1.03390       -1.39374
O          5.16344       -1.80157       -2.01519
C          4.65650       -0.79488        0.07297
C          5.61378       -1.60185        0.70839
C          5.80331       -1.53694        2.09262
C          5.04416       -0.66008        2.86208
C          4.11779        0.17105        2.24580
C          3.93255        0.10833        0.86243
H          1.97535       -1.18748       -0.88360
H          1.22215        1.15849       -2.70688
H          1.51901        2.03302       -1.20052
H          3.39417       -0.71018       -3.04674
H          6.20654       -2.31053        0.13166
H          6.53393       -2.18415        2.57090
H          5.17234       -0.62285        3.94059
H          3.52532        0.86531        2.83785
H          3.20317        0.79155        0.45514
