45

O          1.10979        0.02932        0.00597
S          2.54902        0.16405        0.01236
O          3.23469        0.94492        1.01693
O          3.14900       -1.32976        0.10030
C          3.02931        0.78183       -1.57362
C          3.49706       -0.07156       -2.55638
C          3.85965        0.44409       -3.81800
S          4.61911       -0.75991       -4.90109
O          5.10256       -1.84579       -4.07307
O          3.69862       -1.01510       -5.98532
O          5.92793       -0.03867       -5.50151
C          3.71770        1.83998       -4.15297
C          3.91098        2.49724       -5.43153
N          4.09921        1.72103       -6.60556
N          5.01110        2.16217       -7.33576
C          5.16834        1.47727       -8.57282
C          4.42875        0.32830       -8.90851
C          4.70454       -0.40016      -10.06231
C          5.71462        0.01998      -10.91947
C          6.43839        1.18926      -10.65186
C          7.43576        1.62111      -11.54104
C          8.14942        2.79454      -11.30236
C          7.87776        3.54983      -10.16870
C          6.90181        3.12328       -9.26516
C          6.16281        1.93770       -9.47838
C          3.74905        3.90582       -5.53011
O          3.88395        4.53535       -6.74307
C          3.41857        4.68279       -4.43028
C          3.18195        4.06300       -3.21443
C          3.29859        2.67596       -3.06849
C          2.96426        2.14812       -1.81268
H          2.78931       -1.75891        0.90425
H          3.59253       -1.13609       -2.34553
H          5.70340        0.32898       -6.38364
H          3.62766       -0.02549       -8.26442
H          4.13549       -1.29970      -10.28387
H          5.92472       -0.56935      -11.80971
H          7.66195        1.04492      -12.43600
H          8.91238        3.11901      -12.00502
H          8.42217        4.47223       -9.98440
H          6.70541        3.74021       -8.38946
H          3.74279        5.48998       -6.63926
H          3.30231        5.75980       -4.50690
H          2.88394        4.68765       -2.37180
H          2.62631        2.80377       -1.00888
