33

C          0.92440        0.01333       -0.19521
C          0.66770        1.39504        0.37728
O          1.16132        2.41123       -0.50757
C          2.49493        2.70725       -0.40922
O          3.23316        2.10348        0.36665
N          2.91015        3.71770       -1.29618
C          1.98828        4.60772       -1.94802
C          2.20094        5.01755       -3.27716
C          1.31263        5.88703       -3.91632
C          0.19292        6.35955       -3.23885
C         -0.03977        5.96083       -1.92527
C          0.84950        5.09061       -1.28594
C          4.31424        3.91842       -1.54188
C          4.85245        5.20887       -1.69570
C          6.21716        5.39823       -1.93278
C          7.06794        4.30061       -2.02175
C          6.55695        3.01562       -1.86312
C          5.19332        2.82706       -1.61708
H          0.49784       -0.07275       -1.19973
H          0.48382       -0.75743        0.44366
H          1.99690       -0.18435       -0.28689
H         -0.41128        1.55546        0.47293
H          1.09623        1.50311        1.38035
H          3.05100        4.64243       -3.84327
H          1.49486        6.18760       -4.94494
H         -0.49916        7.03535       -3.73462
H         -0.91270        6.32949       -1.39250
H          0.65086        4.82340       -0.25123
H          4.22172        6.08959       -1.59803
H          6.61398        6.40468       -2.03746
H          8.12914        4.44602       -2.20567
H          7.21743        2.15469       -1.92792
H          4.82791        1.80827       -1.51089
