32

C          0.85369        0.08611        0.17404
C          0.73814       -1.36367        0.61413
O          1.27875       -1.55942        1.92997
C          2.62926       -1.59722        2.00643
O          3.42502       -1.44625        1.09306
C          3.03796       -1.77012        3.41469
C          4.10586       -1.01271        3.89442
C          4.52853       -1.17190        5.21519
C          3.91385       -2.10782        6.06442
S          4.53816       -2.20833        7.71920
C          3.72469       -3.63907        8.37397
C          4.14669       -4.08498        9.63819
C          3.56153       -5.19933       10.24201
C          2.54207       -5.88214        9.58997
C          2.11109       -5.44687        8.33697
C          2.69904       -4.32589        7.72255
C          2.19529       -3.92570        6.38752
O          1.20943       -4.49775        5.92522
C          2.86000       -2.88229        5.57183
C          2.41271       -2.70128        4.24865
H          0.41346        0.75496        0.92025
H          0.34756        0.23941       -0.78356
H          1.90001        0.38478        0.05703
H         -0.31975       -1.64212        0.66374
H          1.21798       -2.04110       -0.10151
H          4.60577       -0.29515        3.24634
H          5.35397       -0.55869        5.57482
H          4.94193       -3.56352       10.16899
H          3.90241       -5.53029       11.22018
H          2.08101       -6.75130       10.05293
H          1.31155       -5.99078        7.83576
H          1.59304       -3.30579        3.86241
