22

C          1.31373       -0.07963        0.19310
C          0.57475        1.06628        0.89561
C          1.35365        2.38595        0.77832
C          1.29690        2.98448       -0.62690
C         -0.13991        3.15495       -1.11256
C         -0.93466        1.85727       -1.01363
C         -0.86902        1.26088        0.39409
O         -1.59537        0.03726        0.43667
H          1.34456        0.04962       -0.89255
H          0.83419       -1.04113        0.40361
H          2.34665       -0.14831        0.55135
H          0.52808        0.79019        1.95767
H          0.93044        3.11015        1.48657
H          2.39925        2.23882        1.07353
H          1.84763        2.34547       -1.32700
H          1.80041        3.95807       -0.62905
H         -0.13927        3.50954       -2.14944
H         -0.63478        3.92878       -0.51268
H         -0.56432        1.13423       -1.75075
H         -1.98137        2.03961       -1.28637
H         -1.38035        1.94602        1.08183
H         -1.27955       -0.52933       -0.28729
