17

O          0.94517        0.11721        0.04956
C          0.59061       -0.80525        1.07010
C          1.05524       -2.20446        0.75845
C          0.27690       -3.29917        1.16878
C          0.70203       -4.60941        0.93262
C          1.91660       -4.84600        0.29165
C          2.69696       -3.76580       -0.10428
O          3.89635       -3.94788       -0.72818
C          2.28168       -2.45718        0.12749
H          1.89180        0.30557        0.15592
H          1.01475       -0.46902        2.02226
H         -0.50080       -0.77895        1.15473
H         -0.67285       -3.13694        1.67500
H          0.08362       -5.44466        1.25140
H          2.23548       -5.86791        0.11506
H          4.03372       -4.90023       -0.85926
H          2.92309       -1.64349       -0.19708
