69

C          1.03878        0.15413       -0.40012
C          0.77934       -1.32617       -0.63435
C          1.23441       -2.20757        0.53214
C          0.55263       -1.90627        1.87081
C         -0.97190       -2.03612        1.84343
C         -1.46636       -3.46100        1.57813
C         -1.09684       -4.47098        2.67626
C         -1.54466       -4.07597        4.09241
C         -3.03137       -3.88275        4.12234
C         -3.86212       -4.71290        4.76151
C         -5.33946       -4.73576        4.50309
C         -5.74881       -6.06599        3.85056
C         -5.38966       -7.32449        4.65265
C         -5.83494       -7.28449        6.11152
C         -7.35303       -7.38537        6.28535
C         -7.83582       -8.77723        6.68785
C         -7.25127       -9.34053        7.98593
C         -8.03347       -8.97778        9.23561
O         -8.96470       -9.71071        9.57488
N         -7.70002       -7.85690        9.98277
C         -6.67593       -6.85111        9.64662
C         -7.26555       -5.45679        9.37533
O         -7.60153       -4.80815       10.59887
C         -8.38866       -7.67259       11.27399
C         -9.84925       -7.22191       11.13132
O        -10.73841       -8.31454       10.91591
H          0.45482        0.53843        0.44158
H          0.75769        0.73134       -1.28613
H          2.09871        0.33576       -0.19650
H         -0.28459       -1.48304       -0.84348
H          1.31663       -1.63913       -1.53705
H          1.07218       -3.25800        0.26347
H          2.31751       -2.09539        0.66253
H          0.96949       -2.57220        2.63530
H          0.81306       -0.89279        2.19597
H         -1.37223       -1.67069        2.79575
H         -1.39497       -1.36733        1.08623
H         -2.55589       -3.43427        1.45414
H         -1.08354       -3.82461        0.61828
H         -1.54962       -5.43715        2.41408
H         -0.01419       -4.63926        2.67763
H         -1.24071       -4.87008        4.78600
H         -1.04214       -3.16459        4.43033
H         -3.44523       -3.10111        3.48988
H         -3.44766       -5.48566        5.40426
H         -5.88628       -4.56414        5.43554
H         -5.62807       -3.92089        3.82752
H         -6.82669       -6.04607        3.65760
H         -5.26687       -6.14743        2.86692
H         -5.81576       -8.20591        4.15940
H         -4.30218       -7.47011        4.62881
H         -5.31152       -8.08963        6.63248
H         -5.48357       -6.36591        6.59319
H         -7.68295       -6.66717        7.03474
H         -7.87018       -7.08841        5.36624
H         -8.93078       -8.75591        6.75442
H         -7.58780       -9.46353        5.86840
H         -7.31799      -10.43598        7.91608
H         -6.18709       -9.15247        8.12820
H         -5.97211       -6.81028       10.48571
H         -6.11042       -7.17309        8.77676
H         -6.53091       -4.83125        8.85737
H         -8.16974       -5.51665        8.76241
H         -8.37807       -4.24788       10.42414
H         -8.34050       -8.62577       11.81306
H         -7.83056       -6.93995       11.86564
H        -10.17272       -6.73691       12.05690
H         -9.97625       -6.51112       10.30945
H        -10.25393       -8.98175       10.37895
