27

C          1.42633       -0.25790        0.01275
C          1.09126        0.06306        1.46181
C          1.18366        1.55544        1.78452
C          0.15978        2.48776        1.10734
N         -1.16929        2.44382        1.73520
C         -1.87331        3.74197        1.67008
C         -2.29929        4.20048        0.26099
O         -3.41982        3.42952       -0.16068
N         -3.38996        3.03639       -1.51976
O         -2.42439        3.39771       -2.19431
O         -4.38271        2.39293       -1.84794
N         -1.98835        1.39170        1.39704
O         -1.75486        0.80968        0.33685
O         -2.92331        1.18596        2.17170
H          0.75392        0.24590       -0.68634
H          1.34312       -1.33531       -0.16227
H          2.45236        0.04238       -0.22346
H          0.10673       -0.33663        1.71926
H          1.80618       -0.47058        2.10034
H          1.11012        1.68114        2.87288
H          2.18970        1.90258        1.51423
H          0.57199        3.49738        1.24552
H          0.13037        2.34234        0.02113
H         -2.75622        3.71537        2.32274
H         -1.22166        4.51173        2.10379
H         -2.63401        5.24275        0.32192
H         -1.43048        4.18050       -0.40417
