61

C          1.08915        0.25546       -0.48180
C          0.79558        0.27262        1.04541
C          1.66810        1.42738        1.62407
C         -0.76010        0.69398        1.19929
C         -1.83594       -0.37013        0.87611
C         -3.24879       -0.21611        1.49282
C         -3.38258        0.65941        2.75107
O         -2.93665       -0.02730        3.93662
C         -3.17033        0.70954        5.14725
C         -2.63570        0.01643        6.36807
C         -2.75017       -1.45560        6.69651
O         -3.67220       -0.50547        7.22566
C         -2.57396        1.92224        2.50049
C         -1.09103        1.56412        2.42976
C          1.39437       -1.09335        1.66428
C          1.32992       -1.21457        3.19990
C          1.51118       -2.60381        3.85050
C          1.56548       -3.85694        2.96610
O          0.58962       -4.86170        3.27958
C         -0.74090       -4.74597        2.78540
C         -1.56879       -3.99862        3.75741
C         -1.65649       -2.52188        3.59767
O         -2.75776       -3.36882        3.24333
C          1.78529       -3.61046        1.48098
C          1.05065       -2.39564        0.92121
H          0.89838        1.23504       -0.93503
H          0.46176       -0.47229       -1.00528
H          2.13923        0.01150       -0.67995
H          1.40680        2.38921        1.16856
H          1.54648        1.52449        2.70832
H          2.73383        1.26036        1.43465
H         -0.90899        1.42270        0.38390
H         -1.96233       -0.40168       -0.21645
H         -1.49026       -1.36589        1.10277
H         -3.66462       -1.21314        1.68338
H         -3.88736        0.22800        0.71569
H         -4.44531        0.89981        2.88281
H         -2.63008        1.65885        5.09217
H         -4.23747        0.92904        5.25009
H         -1.86432        0.59584        6.86090
H         -3.12710       -2.15488        5.96407
H         -2.00727       -1.87160        7.36966
H         -2.73686        2.66016        3.29110
H         -2.90131        2.40302        1.56940
H         -0.76889        1.07458        3.35197
H         -0.55033        2.51476        2.36907
H          2.47850       -1.00568        1.47495
H          2.12201       -0.57405        3.61611
H          0.41100       -0.76575        3.58052
H          0.77899       -2.72941        4.65641
H          2.46982       -2.56206        4.38946
H          2.47916       -4.37463        3.29108
H         -0.77690       -4.34455        1.77191
H         -1.15064       -5.76069        2.72286
H         -1.61116       -4.42649        4.74158
H         -1.64453       -1.93984        4.49697
H         -1.09891       -2.07030        2.81019
H          1.51604       -4.50182        0.90223
H          2.85993       -3.44944        1.32034
H         -0.01495       -2.59212        0.90450
H          1.35649       -2.31305       -0.12769
