38

C          1.14698        0.15972        0.08477
C          0.54797       -0.06595        1.47321
C          0.90570        1.10774        2.38869
C         -0.98222       -0.25452        1.43099
C         -1.48699       -1.43787        0.57664
C         -0.85624       -2.77354        1.00167
C         -1.44161       -3.96187        0.23978
C         -2.97491       -4.03756        0.32373
C         -3.42374       -4.47209        1.73856
C         -4.92744       -4.66423        1.92432
C         -5.45544       -5.81457        1.10825
O         -5.95517       -6.81953        1.60506
C         -3.57208       -2.70102       -0.14039
C         -3.02393       -1.50724        0.63955
H          0.70083        1.03312       -0.40244
H          0.99419       -0.70778       -0.56407
H          2.22767        0.32472        0.15207
H          1.00882       -0.96080        1.90727
H          0.49566        2.04962        2.00929
H          0.51349        0.94723        3.39853
H          1.99253        1.21841        2.46858
H         -1.34535       -0.38274        2.45979
H         -1.44528        0.66909        1.05780
H         -1.21655       -1.25161       -0.47080
H          0.22348       -2.75701        0.81659
H         -0.98458       -2.92133        2.08041
H         -0.99389       -4.89114        0.61169
H         -1.14849       -3.87950       -0.81518
H         -3.29562       -4.81256       -0.38335
H         -2.91960       -5.41541        1.98740
H         -3.08690       -3.74159        2.48261
H         -5.13109       -4.88191        2.97940
H         -5.49374       -3.76511        1.66825
H         -5.39687       -5.69948        0.01324
H         -4.66478       -2.71471       -0.08020
H         -3.33424       -2.56141       -1.20354
H         -3.35968       -1.56078        1.68209
H         -3.45011       -0.58600        0.22340
