22

C          1.05258       -0.08449       -0.04715
O          0.48607       -0.88980       -1.07621
C          0.93440       -0.60148       -2.33618
C         -0.01336       -0.69703       -3.35428
C          0.34417       -0.44128       -4.67995
C          1.66723       -0.11473       -5.00695
C          2.05776        0.16792       -6.43654
C          1.82426       -0.99075       -7.36869
O          1.02322       -1.02047       -8.29041
O          2.61600       -2.05192       -7.11847
C          2.61887       -0.04264       -3.98079
C          2.25535       -0.28749       -2.65226
H          0.51435       -0.30410        0.88012
H          0.92416        0.98129       -0.26601
H          2.10623       -0.32592        0.12112
H         -1.03944       -0.96160       -3.11230
H         -0.41886       -0.50453       -5.45351
H          1.48059        1.02738       -6.79867
H          3.11316        0.45499       -6.51544
H          2.33120       -2.72364       -7.77246
H          3.65639        0.19428       -4.20729
H          3.02599       -0.25263       -1.88961
