18

C          0.96615       -0.04401        0.00466
C          0.63654       -1.12722       -0.97109
C          0.94098       -2.45408       -0.74861
S          0.46167       -3.46837       -2.02312
C         -0.18053       -2.15413       -2.93946
C         -0.79730       -2.19228       -4.21091
Cl        -1.00109       -3.67011       -5.08030
C         -1.25852       -1.00858       -4.79220
C         -1.11392        0.19972       -4.12998
C         -0.50258        0.24049       -2.87434
C         -0.02115       -0.94160       -2.24999
H          0.60156       -0.30726        1.00329
H          0.51564        0.91329       -0.26996
H          2.05096        0.09496        0.05901
H          1.43114       -2.87983        0.11690
H         -1.73404       -1.03136       -5.76985
H         -1.47513        1.11830       -4.58619
H         -0.39878        1.20059       -2.37397
