20

C          2.46221       -0.00678        0.01173
C          0.96137        0.01396       -0.00033
C          0.25063       -1.18737       -0.11679
C         -1.14447       -1.18362       -0.13074
C         -1.83754        0.02606       -0.01093
S         -3.61933       -0.04281       -0.02401
O         -3.99756       -0.87161       -1.15138
O         -3.99540       -0.41373        1.33032
N         -4.11755        1.57711       -0.32707
Cl        -3.80453        2.15424       -1.92555
Cl        -5.74224        1.90168        0.16311
C         -1.14133        1.22887        0.12789
C          0.25650        1.21869        0.12347
H          2.82421       -0.53262        0.90095
H          2.83994       -0.51099       -0.88375
H          2.87790        1.00607        0.02340
H          0.78249       -2.13374       -0.19536
H         -1.68443       -2.12444       -0.22087
H         -1.65329        2.17884        0.24746
H          0.79471        2.15963        0.22291
