20

O          1.23328       -0.24009       -0.47044
C          2.29168       -0.15584        0.12271
O          2.94569       -1.20822        0.64607
C          3.01065        1.18033        0.35429
O          2.40494        2.09600        0.89946
C          4.46923        1.30045        0.09489
C          5.19525        2.03937        1.04870
C          6.58601        2.12711        0.97833
C          7.27004        1.48094       -0.04594
C          6.56149        0.76512       -1.01192
C          5.15891        0.68271       -0.95953
C          4.51609       -0.04796       -2.06972
O          5.00012       -0.97970       -2.68086
O          3.33080        0.48744       -2.38056
H          3.71414       -0.98974        1.20630
H          4.67793        2.54422        1.86546
H          7.13388        2.69728        1.72617
H          8.35496        1.54494       -0.10212
H          7.10940        0.28167       -1.82089
H          2.95723       -0.07303       -3.09704
