60

C          1.15021        0.60948        0.44230
C          1.01934        0.95063       -1.03427
C          1.43407       -0.19825       -1.95748
C          0.62217       -1.48756       -1.79108
C         -0.88297       -1.33168       -2.03350
C         -1.25525       -0.90835       -3.45882
C         -0.84351       -1.90971       -4.54425
C         -1.47680       -3.29800       -4.39496
C         -3.00619       -3.30566       -4.50157
C         -3.54172       -2.84927       -5.86345
C         -3.09422       -3.72718       -7.03782
C         -3.57623       -5.18052       -6.95352
C         -5.10094       -5.34146       -6.98122
C         -5.76626       -4.79735       -8.24957
C         -5.34505       -5.51955       -9.53350
C         -5.81846       -6.97745       -9.62863
C         -7.34078       -7.16125       -9.61555
C         -7.98465       -6.50026      -10.78668
N         -8.28441       -5.22389      -10.90309
C         -8.74429       -5.06403      -12.18303
C         -8.76177       -6.26673      -12.84457
N         -8.29441       -7.17883      -11.93970
H          0.45924       -0.18690        0.73448
H          0.91911        1.48680        1.05417
H          2.16903        0.28748        0.67977
H         -0.00841        1.26357       -1.24842
H          1.65515        1.81708       -1.25126
H          1.37277        0.14537       -2.99677
H          2.49162       -0.43051       -1.78095
H          1.03086       -2.24792       -2.46663
H          0.77485       -1.88767       -0.78224
H         -1.37696       -2.27852       -1.78754
H         -1.29864       -0.60207       -1.32975
H         -2.33757       -0.74112       -3.50310
H         -0.80357        0.06363       -3.68686
H         -1.09600       -1.48913       -5.52425
H          0.24667       -2.01945       -4.55183
H         -1.04692       -3.96387       -5.15143
H         -1.18834       -3.73824       -3.43419
H         -3.36928       -4.31555       -4.28013
H         -3.43821       -2.66924       -3.72131
H         -4.63615       -2.81605       -5.81887
H         -3.23155       -1.81635       -6.05731
H         -3.44140       -3.27104       -7.97144
H         -2.00118       -3.72246       -7.11179
H         -3.12804       -5.74749       -7.77683
H         -3.18984       -5.64940       -6.04170
H         -5.34628       -6.40226       -6.85856
H         -5.54034       -4.83971       -6.11149
H         -6.85346       -4.84643       -8.12752
H         -5.54256       -3.73022       -8.35757
H         -5.71993       -4.95257      -10.39276
H         -4.25470       -5.49803       -9.63747
H         -5.41225       -7.40795      -10.55309
H         -5.38434       -7.56014       -8.80804
H         -7.56684       -8.23447       -9.62745
H         -7.77427       -6.77166       -8.68837
H         -9.03090       -4.09052      -12.55893
H         -9.05024       -6.54345      -13.84806
H         -8.16439       -8.16756      -12.09401
