25

C          0.81970       -0.19845        0.07442
C          0.79479       -0.07220       -1.43727
O          1.29212       -1.27120       -2.04934
C          2.64759       -1.36830       -2.17450
O          3.42466       -0.49358       -1.80608
N          3.01707       -2.49093       -2.87938
C          2.42371       -2.91058       -4.04469
O          1.43246       -2.51151       -4.62704
C          3.25209       -3.99735       -4.56152
C          3.10602       -4.77122       -5.69670
C          4.08225       -5.74290       -5.93810
C          5.16580       -5.91467       -5.05218
C          5.29181       -5.11652       -3.91104
C          4.31633       -4.16184       -3.69699
C          4.16335       -3.19331       -2.61431
O          4.91052       -3.16444       -1.65437
H          0.26046       -1.08315        0.39551
H          0.38127        0.68673        0.54407
H          1.84331       -0.31801        0.44294
H         -0.23840        0.05374       -1.77701
H          1.35346        0.80716       -1.77735
H          2.26852       -4.62764       -6.37235
H          4.00733       -6.37544       -6.82135
H          5.91316       -6.67857       -5.26143
H          6.12076       -5.23895       -3.22071
