12

C          0.92296       -0.02229       -0.06078
C          0.41292        1.37691        0.05932
C         -0.36106        1.97398       -0.85961
C         -0.87110        3.37318       -0.73950
H          0.59260       -0.50560       -0.98563
H          0.56828       -0.62165        0.78322
H          2.01713       -0.02219       -0.04759
H          0.70353        1.91855        0.95695
H         -0.65167        1.43233       -1.75724
H         -0.51642        3.97253       -1.58351
H         -1.96527        3.37307       -0.75270
H         -0.54074        3.85648        0.18535
