44

C          1.26426       -0.07585        0.56395
C          0.73281        0.97819       -0.39523
N          0.92064        0.64367       -1.82032
C         -0.12259        0.16159       -2.63070
O          0.10653       -0.43439       -3.68762
N         -1.41792        0.40767       -2.20720
N         -2.41150       -0.44279       -2.64528
N         -3.53406        0.13286       -2.56897
N         -3.34345        1.45257       -2.27447
C         -4.45450        2.29432       -2.05521
C         -5.64897        1.70486       -1.59174
C         -6.76667        2.47866       -1.26728
C         -6.72301        3.85841       -1.42150
C         -5.57186        4.45840       -1.92738
C         -4.44617        3.68665       -2.25527
Cl        -3.18175        4.52627       -3.08535
C         -1.98678        1.68474       -2.04226
O         -1.43998        2.69136       -1.61971
C          2.28752        0.57966       -2.39064
C          3.24724        1.65294       -1.84828
C          4.61430        1.57899       -2.52615
C          5.22393        0.18619       -2.40324
C          4.28639       -0.88527       -2.95078
C          2.91055       -0.82671       -2.28851
H          0.89101       -1.07128        0.30317
H          0.94399        0.15325        1.58568
H          2.35644       -0.10467        0.56908
H         -0.32781        1.07820       -0.16161
H          1.18695        1.95418       -0.19892
H         -5.71303        0.62970       -1.43291
H         -7.66643        2.00025       -0.88663
H         -7.58944        4.46558       -1.17074
H         -5.56413        5.53429       -2.09108
H          2.17321        0.79095       -3.46392
H          2.81789        2.64973       -2.00528
H          3.39165        1.53648       -0.76840
H          5.28815        2.31689       -2.07621
H          4.51308        1.84282       -3.58596
H          5.44403       -0.02475       -1.34939
H          6.17745        0.15203       -2.94197
H          4.72785       -1.87576       -2.79217
H          4.17537       -0.75522       -4.03419
H          3.01557       -1.12916       -1.24258
H          2.25798       -1.57277       -2.75584
