16

O          1.02978       -0.07945        0.07752
C          2.24808       -0.10461        0.07646
O          3.00534        0.72337        0.82268
C          3.06750       -1.03023       -0.72576
C          2.47266       -1.76449       -1.67694
C          3.21491       -2.65151       -2.50097
C          4.31622       -3.45327       -2.21570
C          4.67869       -4.13543       -3.40172
C          3.78276       -3.72702       -4.35505
O          2.89282       -2.85559       -3.82375
H          3.96788        0.64666        0.69651
H          4.13144       -1.08153       -0.54279
H          1.40859       -1.66712       -1.88185
H          4.79564       -3.54457       -1.25081
H          5.48732       -4.83862       -3.54176
H          3.64449       -3.95506       -5.40274
