18

C          0.95116        0.08348        0.04950
N          0.54223        1.10166        0.99455
C         -0.26196        2.12039        0.47554
N         -1.25024        1.85161       -0.41979
C         -2.00846        2.87272       -0.87885
N         -1.91994        4.18533       -0.57888
C         -0.93231        4.39727        0.30115
N         -0.54103        5.59366        0.82703
C          0.50893        5.35137        1.67125
N          0.81551        4.07174        1.72056
C         -0.08556        3.46160        0.86767
H          0.64160        0.27657       -0.98353
H          0.55010       -0.88694        0.35662
H          2.04392        0.00821        0.05075
H          1.30356        1.51346        1.53229
H         -2.78874        2.59882       -1.58345
H         -0.95762        6.48764        0.61484
H          1.00723        6.14240        2.21631
