49

O          2.99517       -0.69546       -0.64938
C          2.84975        0.13208        0.22886
C          2.42897       -0.13033        1.68168
C          2.16464        1.26041        2.18457
C          1.47828        1.68618        3.31106
C          1.21146        3.06541        3.45456
C          0.11964        3.50919        4.41545
C          0.40942        3.84043        5.89272
N          1.68410        4.51627        6.13441
C          1.60483        5.61579        7.13258
C          1.60566        5.22598        8.63811
N          2.61840        4.20044        8.98326
C          3.91744        4.60514        9.20439
N          4.46969        5.68969        8.66525
S          6.11106        5.49315        8.64181
C          6.14081        4.00282        9.49308
C          7.21239        3.13933        9.77265
C          6.96911        2.01667       10.57057
C          5.70417        1.77513       11.09364
C          4.63219        2.60357       10.75064
C          4.83785        3.72228        9.90296
C          2.53887        3.05970        8.03256
C          2.71744        3.55201        6.57039
C          1.80350        3.98110        2.54197
Cl         1.60384        5.69227        2.70596
C          2.50257        3.53553        1.41369
C          2.60861        2.17660        1.23550
N          3.02941        1.50611        0.09615
H          1.53039       -0.74936        1.70763
H          3.26509       -0.59479        2.21266
H          1.05945        0.95955        4.00122
H         -0.40398        4.36284        3.96780
H         -0.64590        2.71911        4.41004
H         -0.42851        4.46623        6.22908
H          0.31566        2.91935        6.47861
H          2.46223        6.27467        6.94962
H          0.72723        6.24433        6.93057
H          0.61934        4.81773        8.89486
H          1.73460        6.12133        9.25998
H          8.20184        3.32922        9.36877
H          7.78312        1.32983       10.79230
H          5.53854        0.92281       11.74856
H          3.63305        2.39092       11.12380
H          1.57437        2.55875        8.16977
H          3.29713        2.29726        8.24429
H          2.74230        2.68753        5.89933
H          3.69620        4.03474        6.45653
H          2.88026        4.23293        0.67485
H          3.26479        1.93689       -0.78615
