33

C          0.70397        0.12679       -0.66386
C          0.30712        1.39844        0.00987
C         -0.84760        1.46051        0.76501
N         -1.22419        2.53762        1.47175
C         -0.42854        3.59927        1.39216
N         -0.42674        4.49489        2.45774
S         -1.83427        4.83404        3.25956
O         -1.48708        5.80176        4.28045
O         -2.86259        5.13466        2.28753
C         -2.28615        3.34563        4.12407
C         -1.32026        2.40681        4.49713
C         -1.72596        1.16401        4.99212
C         -3.08370        0.84906        5.10699
N         -3.47888       -0.36966        5.67152
C         -4.03080        1.84482        4.84987
C         -3.64159        3.07973        4.32673
N          0.69393        3.67351        0.67130
C          1.03441        2.57936       -0.05046
C          2.27108        2.73517       -0.88583
H          0.55181        0.19748       -1.74401
H          0.11776       -0.71986       -0.28864
H          1.75332       -0.10667       -0.45380
H         -1.51059        0.60434        0.86485
H          0.20769        5.27612        2.34596
H         -0.26198        2.60915        4.36274
H         -0.97005        0.43071        5.25999
H         -2.82327       -1.12604        5.50141
H         -4.43170       -0.63286        5.43819
H         -5.08694        1.65491        5.02306
H         -4.39532        3.82003        4.06801
H          2.12312        3.54584       -1.60684
H          3.12176        2.98566       -0.24451
H          2.52520        1.83480       -1.45008
