24

C          1.32751       -0.00548       -0.13529
C          0.59617        1.33812       -0.20953
C          0.95891        2.04299       -1.51897
C         -0.93454        1.18099       -0.10712
C         -1.39767        0.65614        1.23083
C         -1.60579        1.53126        2.30553
C         -1.99440        1.03831        3.55247
C         -2.17144       -0.33110        3.73903
C         -1.97163       -1.20964        2.67581
C         -1.59286       -0.71762        1.42650
H          0.94659       -0.70719       -0.88515
H          1.21583       -0.46502        0.85155
H          2.40109        0.12426       -0.30862
H          0.95166        1.96449        0.61887
H          0.62904        1.46221       -2.38721
H          0.49092        3.03141       -1.57257
H          2.04235        2.18341       -1.59790
H         -1.41657        2.15290       -0.27986
H         -1.30493        0.52587       -0.90666
H         -1.46305        2.60151        2.17759
H         -2.15328        1.72385        4.38098
H         -2.46289       -0.71494        4.71286
H         -2.10429       -2.27813        2.82018
H         -1.43269       -1.41589        0.60774
