26

O          1.77006        1.78195        0.17176
C          1.31869        0.64507        0.11156
O          2.12218       -0.44523        0.15771
C          1.57799       -1.67304        0.01888
C          2.63877       -2.69470        0.02460
C          2.59471       -3.72565       -0.91971
C          3.57500       -4.71844       -0.90736
C          4.58395       -4.69074        0.05661
C          4.62199       -3.66721        1.00498
C          3.65293       -2.66306        0.98845
N          0.32837       -1.96046       -0.13059
C         -0.56749       -0.89608       -0.09256
C         -1.93896       -1.15054       -0.14802
C         -2.85717       -0.09833       -0.10274
C         -2.40626        1.21822       -0.00863
C         -1.03757        1.47988        0.04955
C         -0.12895        0.41514        0.01458
H          1.80334       -3.75565       -1.66508
H          3.54894       -5.51705       -1.64464
H          5.34031       -5.47206        0.07182
H          5.40370       -3.65596        1.76069
H          3.68317       -1.87580        1.73754
H         -2.29114       -2.17670       -0.21890
H         -3.92347       -0.30858       -0.13933
H         -3.12004        2.03800        0.02478
H         -0.68220        2.50498        0.12904
