32

C          0.47731        0.86931       -0.31816
C          0.08461        0.88626       -1.79160
C          1.07306        0.17906       -2.72432
O          0.92812       -1.23397       -2.86350
C          1.16634       -2.03863       -1.71031
C          2.63302       -2.44140       -1.48428
O          3.50785       -1.32482       -1.69642
C          2.90304       -2.96866       -0.06188
O          2.28792       -4.20185        0.28840
C          0.94543       -4.18781        0.75463
C          0.73657       -3.74511        2.20445
C          0.92524       -2.25924        2.46519
H         -0.06440        0.08489        0.21750
H          0.20429        1.81512        0.16099
H          1.55174        0.71678       -0.17557
H         -0.92356        0.47459       -1.90832
H          0.04621        1.93930       -2.09778
H          0.89178        0.57142       -3.73229
H          2.10196        0.45323       -2.48341
H          0.73853       -1.57629       -0.82442
H          0.59604       -2.95795       -1.88216
H          2.90760       -3.20722       -2.21864
H          3.46203       -1.13550       -2.64802
H          3.98372       -3.14822        0.01267
H          2.71168       -2.18713        0.67381
H          0.28655       -3.63573        0.08595
H          0.61476       -5.23190        0.69414
H         -0.29720       -3.99580        2.47412
H          1.39437       -4.31077        2.87246
H          0.56794       -1.65499        1.62797
H          0.36696       -1.95527        3.35635
H          1.97647       -2.02282        2.65351
