26

O          1.03039       -0.00590        0.09509
P          2.57874       -0.00590        0.09509
O          2.73157       -1.42178       -0.75137
C          2.18725       -2.61840       -0.21481
C          3.05590       -3.20145        0.88995
Cl         2.62673       -2.50844        2.47755
O          2.74867        1.02145       -1.20425
C          1.69657        1.88642       -1.60878
C          1.07961        1.47024       -2.94199
Cl         0.22514       -0.08961       -2.90344
O          4.30874       -0.00590        0.09509
C          4.95694        0.10659        1.35332
C          4.69832        1.43101        2.05837
Cl         3.11736        1.43298        2.88090
H          1.14883       -2.47675        0.10131
H          2.16692       -3.33236       -1.04491
H          2.90039       -4.28029        0.97367
H          4.11812       -3.00344        0.71835
H          0.93869        2.03305       -0.83105
H          2.15521        2.87082       -1.75030
H          0.34964        2.21895       -3.26177
H          1.85234        1.38338       -3.71175
H          4.71489       -0.75176        1.98133
H          6.02944        0.04013        1.13987
H          5.45078        1.59954        2.83373
H          4.70310        2.26790        1.35582
