28

C          0.88431        0.70018        0.12453
C          0.64275       -0.55228       -0.70039
C          1.24305       -1.80603       -0.06620
C          0.54294       -2.31018        1.20217
C         -0.93581       -2.68836        1.05324
C         -1.27809       -3.68032       -0.06215
O         -0.85354       -5.00637        0.24140
C          0.41379       -5.40000       -0.28099
C          0.38133       -5.81078       -1.75738
O          0.13037       -4.71960       -2.64052
H          0.37820        0.64688        1.09224
H          0.50521        1.57829       -0.40759
H          1.95462        0.84996        0.30045
H         -0.42956       -0.68030       -0.88056
H          1.10697       -0.41030       -1.68416
H          1.24868       -2.59300       -0.82453
H          2.29796       -1.62021        0.17186
H          1.09421       -3.17685        1.58578
H          0.62451       -1.54703        1.98569
H         -1.26739       -3.11019        2.01077
H         -1.51817       -1.77278        0.89701
H         -2.37141       -3.72759       -0.13113
H         -0.92878       -3.33229       -1.03511
H          1.16189       -4.62745       -0.10801
H          0.72063       -6.27451        0.30305
H          1.34985       -6.23757       -2.03886
H         -0.39361       -6.56136       -1.93053
H          0.81221       -4.04949       -2.48893
