56

C          0.73772        0.68622        0.48270
N          0.14286        0.03506        1.72061
C          0.67625        0.80476        2.94174
C         -1.37489        0.19218        1.69415
C          0.54964       -1.43769        1.90503
C          0.12811       -2.41245        0.79688
C          0.91872       -2.39341       -0.51696
C          2.43516       -2.55627       -0.37446
C          2.89218       -3.97781       -0.02852
C          2.58558       -5.03765       -1.09680
C          3.04260       -4.68047       -2.51554
C          4.55904       -4.53669       -2.67727
C          5.34965       -5.85064       -2.66864
C          4.92812       -6.95103       -3.65214
N          5.33490       -6.75496       -5.12338
C          6.85265       -6.72726       -5.28029
C          4.80151       -7.96995       -5.90273
C          4.74005       -5.51193       -5.76472
H          0.64402        1.77264        0.57751
H          0.16974        0.36682       -0.39286
H          1.79063        0.40402        0.40853
H          0.36782        1.85106        2.85660
H          0.25463        0.35493        3.84543
H          1.76761        0.72762        2.94319
H         -1.76396       -0.28490        0.79135
H         -1.78811       -0.27823        2.59079
H         -1.61012        1.26050        1.67692
H          1.63002       -1.45753        2.07334
H          0.07580       -1.76000        2.84171
H          0.22123       -3.42442        1.21379
H         -0.93663       -2.29884        0.56959
H          0.51970       -3.18233       -1.16569
H          0.71865       -1.47093       -1.06364
H          2.90905       -2.23645       -1.30920
H          2.82700       -1.86709        0.37939
H          3.97316       -3.95732        0.15340
H          2.43842       -4.29122        0.91904
H          3.03933       -5.98767       -0.79090
H          1.50460       -5.21941       -1.11873
H          2.65076       -5.42884       -3.21068
H          2.56871       -3.74323       -2.82795
H          4.75911       -3.98271       -3.59540
H          4.95806       -3.89422       -1.88324
H          6.41439       -5.62245       -2.78044
H          5.25653       -6.27555       -1.66000
H          5.40196       -7.89023       -3.33726
H          3.84774       -7.11949       -3.63364
H          7.26587       -7.62759       -4.81699
H          7.08788       -6.70156       -6.34844
H          7.24172       -5.82826       -4.79607
H          3.71015       -7.97201       -5.82561
H          5.10993       -7.87653       -6.94832
H          5.22313       -8.87717       -5.46007
H          3.68713       -5.43999       -5.48194
H          5.30802       -4.63892       -5.43840
H          4.83374       -5.59813       -6.85186
