34

C          0.81160       -0.22662       -0.11700
C          0.57347       -1.72493        0.04484
N          0.92217       -2.19916        1.39978
C          2.29971       -2.15408        1.69277
C          2.75020       -1.02671        2.41420
C          4.09860       -0.82547        2.69369
C          5.02634       -1.75398        2.25235
C          4.59572       -2.88579        1.55583
C          3.22982       -3.12134        1.28597
N          2.85138       -4.31352        0.59710
C          3.83713       -4.93687       -0.28333
C          1.70944       -5.07903        0.86081
O          1.62319       -6.23624        0.41403
C          0.54505       -4.62182        1.65267
C         -0.31003       -5.61983        2.16190
C         -1.54765       -5.28920        2.69779
C         -1.90788       -3.96080        2.69164
N         -1.10614       -2.97661        2.23645
C          0.12618       -3.29884        1.74597
H          0.33481        0.33943        0.69025
H          0.39634        0.12088       -1.06838
H          1.87927        0.01405       -0.12000
H         -0.49309       -1.89328       -0.16048
H          1.12857       -2.27637       -0.72513
H          2.02296       -0.29108        2.75417
H          4.41654        0.05255        3.24868
H          6.08369       -1.61243        2.46068
H          5.35776       -3.60482        1.26721
H          4.49509       -5.58307        0.30568
H          3.34129       -5.54968       -1.04417
H          4.41349       -4.17510       -0.81842
H         -0.02240       -6.66854        2.10614
H         -2.21973       -6.05101        3.07538
H         -2.87594       -3.63631        3.06159
