18

O          1.09464        0.08854       -0.08591
N          2.33048        0.10886       -0.03208
O          3.01079        0.10861        0.99946
C          3.04723        0.18394       -1.29851
C          2.65883        1.18994       -2.19903
C          3.33400        1.32556       -3.41154
C          4.38258        0.46051       -3.70568
O          5.07550        0.55655       -4.87421
C          4.76348       -0.54250       -2.81554
C          4.09206       -0.70758       -1.59148
C          4.50331       -1.81174       -0.65531
F          5.21418       -2.79294       -1.28187
F          5.29629       -1.37802        0.35765
F          3.44409       -2.44788       -0.08774
H          1.84135        1.86831       -1.95969
H          3.03430        2.10533       -4.10603
H          4.71607        1.28815       -5.40384
H          5.58697       -1.20279       -3.08788
