43

C         -1.04994        0.46315       -0.65633
C         -0.30341        0.25297        0.63688
C         -0.21068       -0.93913        1.25704
C         -0.74145       -2.18914        0.64335
O         -1.48497       -2.98743        1.18465
O         -0.23198       -2.40771       -0.58245
N          0.45888       -1.12096        2.43144
C          1.58730       -1.88725        2.52928
O          1.91609       -2.90102        1.95436
C          2.31189       -0.75709        3.33424
N          3.38906       -0.08872        2.55790
C          4.73403       -0.32933        2.60570
O          5.43201        0.14043        1.70093
C          5.37288       -1.11034        3.79282
N          5.02273       -0.43360        5.05803
C          5.09098       -2.59854        3.77016
C          5.36108       -3.33420        2.66919
C          5.15101       -4.81858        2.56178
C          4.63769       -5.44590        3.82277
C          4.37522       -4.74202        4.93315
C          4.56575       -3.25484        5.03267
C          0.91015       -0.08296        3.33272
S          0.79415        1.63097        2.81097
C          0.43757        1.47954        1.07063
H         -1.69454        1.34577       -0.57592
H         -1.70118       -0.37219       -0.92458
H         -0.33341        0.62628       -1.46816
H         -0.55393       -3.30818       -0.79449
H          2.61261       -1.05958        4.33774
H          3.14121        0.43242        1.72484
H          6.45892       -0.98770        3.67653
H          5.69596       -0.73421        5.76335
H          5.20794        0.56361        4.93226
H          5.76009       -2.85800        1.77496
H          4.44360       -5.01881        1.74950
H          6.10481       -5.28993        2.29705
H          4.46904       -6.51893        3.81127
H          3.99599       -5.24979        5.81543
H          5.26602       -3.06562        5.85506
H          3.59884       -2.81766        5.30244
H          0.41217       -0.20944        4.30410
H         -0.14142        2.37224        0.80211
H          1.37627        1.54321        0.50737
