38

N          0.76518        0.37465        0.37659
C          0.30845        1.48550       -0.47660
C          0.97392        1.57129       -1.86840
C          0.64304        0.51820       -2.90037
C         -0.08979        0.87255       -4.04621
C         -0.41651       -0.08170       -5.01214
C         -0.00710       -1.39742       -4.83572
O         -0.31196       -2.36386       -5.74807
C          0.73019       -1.76732       -3.71842
C          1.06071       -0.81123       -2.75485
C         -1.22571        1.46041       -0.51677
O         -1.83999        2.35460        0.28661
N         -1.88506        0.60658       -1.20994
C         -3.34313        0.60322       -1.10010
C         -3.79014        0.18633        0.29189
O         -4.51808        1.10920        0.95575
N         -3.51983       -0.96343        0.80198
C         -4.03348       -1.20888        2.16135
C         -3.39897       -0.31899        3.21481
O         -3.93986        0.05854        4.24601
O         -2.09951       -0.02503        3.00431
H          0.22482       -0.45867        0.11366
H          1.73480        0.14942        0.16355
H          0.60993        2.40153        0.04692
H          0.72774        2.55663       -2.28830
H          2.06582        1.58425       -1.74495
H         -0.42502        1.89726       -4.18910
H         -0.98942        0.21930       -5.88280
H         -0.88504       -1.97279       -6.42719
H          1.04120       -2.80033       -3.59292
H          1.64051       -1.12356       -1.89173
H         -1.21812        2.72929        0.93321
H         -3.76026        1.57520       -1.38440
H         -3.74614       -0.13041       -1.80710
H         -4.51805        1.96541        0.49848
H         -5.12190       -1.08513        2.18758
H         -3.80977       -2.24554        2.43409
H         -1.84465        0.47406        3.80477
