43

C          0.99817       -0.12625        0.12262
S          0.36471       -1.67767        0.81467
C          1.14895       -2.84478       -0.33387
S          0.48665       -2.79900       -1.96721
O          1.31794       -1.77430       -2.56053
C          1.06513       -4.20445       -2.86313
C          0.36641       -5.50200       -2.44470
C         -1.17093       -5.43717       -2.43037
O         -1.64172       -4.74653       -3.58822
N          0.87353       -6.63604       -3.23743
C          0.61584       -6.84391       -4.46773
O         -0.17801       -6.09217       -5.24620
C          1.12606       -7.95530       -5.29712
C          2.09416       -8.76834       -4.84624
C          2.61795       -9.89741       -5.63279
C          2.60444      -11.20871       -5.15507
C          2.05885      -11.59470       -3.80996
N          3.10594      -12.24728       -5.86487
C          3.60652      -11.95521       -7.06351
O          4.12595      -12.97276       -7.79715
N          3.68023      -10.76271       -7.63836
C          3.18991       -9.75727       -6.89831
O          3.32583       -8.54223       -7.51160
H          0.75325        0.69253        0.80483
H          0.53173        0.08677       -0.84190
H          2.08483       -0.16863        0.01237
H          2.23013       -2.68969       -0.37410
H          0.96502       -3.85130        0.05058
H         -0.81926       -2.49821       -2.08554
H          0.91110       -3.98333       -3.92415
H          2.14539       -4.28273       -2.69941
H          0.66340       -5.72568       -1.41231
H         -1.61521       -6.43751       -2.41188
H         -1.51772       -4.88883       -1.54812
H         -2.57270       -4.50531       -3.41508
H         -0.65512       -5.40793       -4.73671
H          0.67321       -8.07674       -6.27655
H          2.51283       -8.64137       -3.84951
H          1.40779      -12.46955       -3.91479
H          2.88484      -11.85470       -3.14025
H          1.46609      -10.80633       -3.34021
H          4.41016      -12.46201       -8.57314
H          3.17116       -7.84549       -6.85697
