20

C          0.90303        0.00788       -0.14862
C          0.37039        0.12473        1.27839
N          0.88122        1.36622        1.89918
C          0.52016        1.54451        3.31267
C          1.03296        0.49577        4.30825
C          2.49826        0.43742        4.32952
N          3.65836        0.39030        4.32871
C         -1.15852        0.07915        1.29154
O         -1.83402       -0.56689        2.08092
O         -1.75202        0.90492        0.40764
H          0.60561        0.86081       -0.76881
H          0.51825       -0.89839       -0.62961
H          1.99727       -0.04828       -0.15471
H          0.73203       -0.75337        1.82554
H          1.89607        1.40749        1.78713
H          0.90170        2.52857        3.61439
H         -0.56980        1.61969        3.40531
H          0.67133        0.75872        5.30946
H          0.61830       -0.49163        4.08008
H         -2.70699        0.83626        0.61020
