30

C          0.57533       -0.07059       -0.00610
C          0.43482       -0.29759        1.50565
C          1.25452        0.68851        2.37828
C          1.48748        2.04092        1.73549
O          0.89484        3.05915        2.08493
C          2.58053        0.10379        2.90691
C          2.53222       -1.43128        3.01088
C          2.33496       -2.00738        1.58227
C          0.81337       -1.75998        1.84831
C          1.14787       -2.12594        3.36942
C          0.32856       -1.53672        4.51905
C          1.23382       -3.64698        3.64560
H          0.08697        0.86166       -0.30813
H          0.11337       -0.88631       -0.57219
H          1.62290       -0.00782       -0.31834
H         -0.62724       -0.15902        1.74809
H          0.63773        0.93157        3.24930
H          2.20900        2.07188        0.90289
H          3.41886        0.39692        2.26139
H          2.79520        0.53322        3.89274
H          3.40572       -1.82915        3.53827
H          2.62771       -3.05408        1.44807
H          2.81576       -1.46062        0.76699
H          0.14492       -2.47406        1.35248
H         -0.68325       -1.95731        4.52663
H          0.79594       -1.77664        5.48171
H          0.21819       -0.45773        4.50013
H          1.70882       -4.21916        2.84600
H          1.80215       -3.83505        4.56361
H          0.23058       -4.06871        3.77794
