30

C          1.00173       -0.09252       -0.20933
O          0.55000       -1.16256       -1.03860
C          0.93028       -1.06749       -2.34309
O          1.60025       -0.15790       -2.81450
C          0.44700       -2.26416       -3.14536
C          1.19593       -3.52096       -2.68993
C          0.64227       -4.80470       -3.30326
C         -0.87774       -4.93899       -3.19142
C         -1.33047       -5.37386       -1.80326
O         -1.90741       -6.43056       -1.57906
O         -1.01870       -4.44850       -0.86022
C         -1.42183       -4.77643        0.46876
C         -1.60395       -3.68461       -3.68229
C         -1.07906       -2.38848       -3.06835
H          0.61649       -0.26305        0.80009
H          0.61470        0.86512       -0.57027
H          2.09493       -0.08092       -0.16506
H          0.71060       -2.07423       -4.19474
H          2.25638       -3.42636       -2.95784
H          1.18593       -3.60444       -1.59733
H          1.13612       -5.66763       -2.84051
H          0.91462       -4.82191       -4.36681
H         -1.17745       -5.76507       -3.85230
H         -2.50817       -4.89390        0.52235
H         -0.91155       -5.68163        0.81048
H         -1.13106       -3.94733        1.12044
H         -2.67991       -3.76668       -3.48648
H         -1.48837       -3.62029       -4.77224
H         -1.42863       -2.31182       -2.03301
H         -1.53709       -1.53605       -3.58663
