40

C          1.50935       -0.70056       -0.95737
C          0.66721       -1.67560       -0.13110
C          0.22864       -2.86403       -1.01318
C          0.89768       -4.00652       -0.34852
C          0.86420       -5.33870       -0.73208
C          1.53027       -6.26942        0.06142
C          2.21646       -5.85559        1.21153
C          2.24290       -4.50513        1.58070
C          1.56766       -3.57871        0.79627
N          1.48521       -2.16854        1.02037
N          0.99720       -1.87932        2.35862
C          1.36925       -0.65705        2.90869
O          2.03888       -0.56723        3.93142
C          0.81718        0.56013        2.27918
C         -0.55274        0.64232        2.01640
C         -1.04845        1.70545        1.26304
C         -0.18360        2.69551        0.77815
Cl        -0.88659        3.86026       -0.28379
C          1.17492        2.64627        1.11241
S          2.32730        3.83471        0.50175
N          2.50134        3.35273       -1.10012
O          1.74038        5.14996        0.49006
O          3.62022        3.58821        1.10195
C          1.67417        1.59231        1.89656
H          1.87892        0.12946       -0.35550
H          0.91903       -0.28163       -1.77892
H          2.38899       -1.19510       -1.38370
H         -0.23730       -1.16766        0.21203
H         -0.85934       -2.98445       -0.98266
H          0.54992       -2.76125       -2.05479
H          0.32934       -5.65157       -1.62328
H          1.51941       -7.32118       -0.21431
H          2.73834       -6.59170        1.81830
H          2.80197       -4.19707        2.45809
H          1.30302       -2.61148        2.99701
H         -1.22438       -0.14574        2.35116
H         -2.10903        1.73128        1.01937
H          2.16497        4.08947       -1.72218
H          3.47174        3.08303       -1.27004
H          2.73379        1.52280        2.13914
