30

C          2.54372       -0.08414       -0.07887
C          1.04589       -0.00777       -0.03235
C          0.28639       -1.17551       -0.15052
C         -1.10742       -1.12130       -0.07392
C         -1.77044        0.10011        0.12488
C         -3.25654        0.05445        0.29420
O         -3.68730       -0.95040        0.86337
N         -4.04897        1.09972       -0.18540
O         -3.43346        2.07391       -1.00467
C         -5.47733        1.16391       -0.15856
C         -6.25519        0.30193        0.62876
C         -7.65440        0.38176        0.63546
C         -8.29914        1.33536       -0.14224
Cl       -10.01564        1.42986       -0.13903
C         -7.55542        2.21268       -0.92247
C         -6.15662        2.12748       -0.92789
C         -1.00743        1.26381        0.26844
C          0.38955        1.21079        0.17648
H          2.91918       -0.60673        0.80704
H          2.86988       -0.61970       -0.97635
H          2.99621        0.91245       -0.10355
H          0.77424       -2.13848       -0.28756
H         -1.67810       -2.04555       -0.14918
H         -3.47280        2.85224       -0.41891
H         -5.80457       -0.45217        1.26739
H         -8.22563       -0.30821        1.25156
H         -8.05244        2.95920       -1.53642
H         -5.61334        2.81648       -1.56988
H         -1.47219        2.21959        0.48154
H          0.96333        2.12867        0.28792
