56

O          1.11196       -0.36210       -0.14524
C          2.31116       -0.11822       -0.04147
C          3.15829        0.30707       -1.23059
C          3.95900        1.56586       -0.99313
C          5.29999        1.49699       -0.58649
C          6.01961        2.66298       -0.32372
C          5.41241        3.90742       -0.48182
C          4.08520        3.98745       -0.89961
C          3.35836        2.82242       -1.14777
N          3.00517       -0.29199        1.12966
C          2.38531       -0.73205        2.37736
C          2.67542       -2.20532        2.68818
S          4.41445       -2.67104        3.10525
S          5.48352       -2.32913        1.38681
C          7.18670       -1.88157        1.94389
C          7.29382       -0.65583        2.86651
N          6.94296       -0.93897        4.26964
C          7.59179       -1.70800        5.19433
O          6.91087       -2.21167        6.09177
C          9.09951       -1.88396        5.17280
C          9.60689       -2.97394        4.26183
C          9.00108       -4.23875        4.23540
C          9.47832       -5.23589        3.38302
C         10.58283       -4.99102        2.57017
C         11.21948       -3.75311        2.61805
C         10.73937       -2.75234        3.46444
C          8.60003        0.13721        2.73703
O          8.97363        1.02917        3.48563
O          9.35145       -0.16940        1.66384
C          2.80356        0.15143        3.54936
O          2.32611        0.12786        4.67290
O          3.84708        0.96810        3.27653
H          3.82119       -0.52613       -1.49362
H          2.49673        0.45762       -2.09265
H          5.79185        0.53411       -0.47225
H          7.05556        2.60434       -0.00096
H          5.97416        4.81670       -0.28388
H          3.61436        4.95859       -1.03115
H          2.32039        2.90180       -1.46651
H          3.95556        0.05083        1.20038
H          1.30124       -0.60244        2.27240
H          2.08090       -2.50486        3.55937
H          2.35400       -2.84215        1.85644
H          7.61709       -2.77383        2.39510
H          7.72748       -1.71516        1.00776
H          6.53868        0.07115        2.53388
H          5.94452       -0.98995        4.44515
H          9.57073       -0.92408        4.94756
H          9.41883       -2.12484        6.19588
H          8.14272       -4.45588        4.87045
H          8.98823       -6.20612        3.35737
H         10.95495       -5.77017        1.90994
H         12.09542       -3.57039        2.00065
H         11.26125       -1.79859        3.49951
H         10.13478        0.41935        1.73890
H          3.96329        1.48222        4.10511
