63

C          0.97266       -0.39898        0.00230
C          0.52870       -0.33117        1.45616
C          1.09184        0.87364        2.21480
C          0.77698        2.24411        1.60392
C         -0.72273        2.58688        1.45164
C         -1.49220        2.59524        2.78829
C         -1.07318        3.67745        3.77378
C         -0.88531        3.92362        0.70250
O         -0.56484        3.73187       -0.68722
C          0.54737        4.34866       -1.14412
O          1.35000        4.99597       -0.48979
C          0.80635        3.98123       -2.54946
C         -0.09372        3.87490       -3.54207
C          0.29350        3.48216       -4.93509
C         -1.51424        4.24802       -3.33278
O         -1.87619        5.26652       -2.76689
O         -2.30199        3.30846       -3.90831
C         -3.72403        3.52537       -3.85879
C         -4.39788        2.37208       -3.09523
C         -3.91428        2.27239       -1.62957
C         -4.33202        3.42650       -0.72914
C         -5.93709        2.46035       -3.15973
C         -6.56374        2.24483       -4.54249
C         -6.22730        0.91916       -5.22863
C         -6.57287       -0.30592       -4.39600
H          0.53992        0.41502       -0.58721
H          0.64520       -1.34164       -0.44769
H          2.06281       -0.34468       -0.07994
H         -0.56560       -0.33455        1.50448
H          0.86314       -1.24349        1.96492
H          0.73908        0.83752        3.25169
H          2.18347        0.77082        2.26817
H          1.26790        3.01225        2.21401
H          1.26566        2.29763        0.62469
H         -1.17683        1.81011        0.82267
H         -2.56161        2.72173        2.57621
H         -1.40189        1.61805        3.27568
H         -1.25945        4.67773        3.37160
H         -1.65331        3.58302        4.69782
H         -0.01519        3.59893        4.03747
H         -1.92774        4.25291        0.73577
H         -0.28837        4.71850        1.16356
H          1.85968        3.80745       -2.74408
H         -0.14248        2.51415       -5.20203
H         -0.05188        4.23159       -5.65511
H          1.37989        3.39671       -5.04749
H         -3.99061        4.49815       -3.43217
H         -4.05986        3.53274       -4.90072
H         -4.07287        1.43538       -3.56542
H         -4.30462        1.34279       -1.19614
H         -2.82263        2.17719       -1.60472
H         -5.41956        3.52227       -0.66915
H         -3.97051        3.25011        0.28831
H         -3.91848        4.37800       -1.07319
H         -6.37102        1.73196       -2.46344
H         -6.26055        3.44690       -2.80425
H         -7.65388        2.31199       -4.43112
H         -6.28149        3.06815       -5.20856
H         -6.78670        0.86929       -6.17075
H         -5.16643        0.89044       -5.49973
H         -7.62136       -0.28643       -4.08254
H         -6.41060       -1.21629       -4.98185
H         -5.94551       -0.37326       -3.50212
