21

C          0.75519        0.21833        0.49551
C          0.29323       -0.97078        0.07203
C         -1.18375       -1.17252       -0.14809
C          1.16899       -2.18650       -0.21647
C          1.96641       -2.14271       -1.52013
C          3.12369       -1.18717       -1.53311
O          4.27644       -1.45124       -1.23215
O          2.79525        0.04003       -1.97472
C          2.01186       -2.64893        0.96669
O          1.90008       -3.72729        1.53151
O          2.94149       -1.76955        1.37775
H          0.08772        1.05417        0.68536
H          1.81168        0.40258        0.66489
H         -1.37356       -1.49434       -1.17728
H         -1.56680       -1.93785        0.53485
H         -1.75776       -0.25564        0.02302
H          0.46725       -3.02504       -0.35426
H          2.38471       -3.13601       -1.73134
H          1.31282       -1.91248       -2.37082
H          3.63438        0.54390       -1.92976
H          3.40999       -2.23258        2.10320
