46

C          0.83107       -0.03019        0.04442
C          0.24024        1.37775        0.03778
C          0.85108        2.28026       -1.02687
O         -1.20654        1.38442       -0.02246
C         -1.85280        0.81094       -1.07325
O         -1.27337        0.25914       -2.00027
C         -3.38456        0.87067       -0.93454
S         -3.83186        2.05039       -2.26547
O         -3.42475        3.38768       -1.87222
O         -3.42813        1.52569       -3.55682
C         -5.62243        2.08541       -2.32406
C         -6.33402        2.95860       -1.49513
C         -7.73140        2.93402       -1.51125
C         -8.40370        2.08015       -2.38738
Cl       -10.12302        2.03101       -2.38138
C         -7.69244        1.26398       -3.26635
C         -6.29663        1.27064       -3.24263
C         -3.93535       -0.54079       -1.25353
C         -3.83596       -1.54605       -0.10006
C         -5.07860       -1.55246        0.78955
C         -5.22057       -0.33825        1.69854
C         -5.21276        0.99637        0.96139
C         -3.82449        1.40495        0.45819
H          0.73518       -0.52609       -0.92579
H          0.31881       -0.65935        0.77960
H          1.89770       -0.00118        0.29008
H          0.47433        1.82235        1.01263
H          0.67959        1.89661       -2.03677
H          0.40036        3.27738       -0.98335
H          1.93149        2.37936       -0.88063
H         -5.81715        3.63265       -0.81541
H         -8.29082        3.57720       -0.83615
H         -8.21719        0.62052       -3.96864
H         -5.74837        0.63508       -3.93625
H         -4.97651       -0.49123       -1.58465
H         -3.39295       -0.96266       -2.11001
H         -2.92957       -1.38953        0.49555
H         -3.74888       -2.54837       -0.53814
H         -5.05320       -2.44811        1.42198
H         -5.97735       -1.64620        0.16647
H         -4.43549       -0.35108        2.46379
H         -6.17320       -0.42745        2.23625
H         -5.54651        1.76542        1.67006
H         -5.95434        0.96806        0.16316
H         -3.11091        1.08964        1.23007
H         -3.77006        2.50047        0.46276
