23

Cl        -2.62085        0.95648        0.31389
C         -1.18474        0.01750        0.19425
C         -1.24845       -1.36511        0.35362
C         -0.08619       -2.13718        0.25463
C          1.14433       -1.52408       -0.01641
O          2.34449       -2.19670       -0.14979
C          2.35217       -3.57120       -0.10389
C          2.07406       -4.31940       -1.25378
Cl         1.64924       -3.56758       -2.74788
C          2.13857       -5.71028       -1.21342
C          2.50870       -6.35951       -0.03228
Cl         2.56186       -8.08873       -0.07343
C          2.82391       -5.62182        1.12031
Cl         3.30095       -6.44012        2.57617
C          2.75059       -4.21870        1.07853
Cl         3.14247       -3.25597        2.47082
C          1.19125       -0.12735       -0.16441
Cl         2.68131        0.69091       -0.48215
C          0.03136        0.64343       -0.06014
H         -2.20137       -1.85006        0.55461
H         -0.17788       -3.20989        0.39003
H          1.90942       -6.29084       -2.10517
H          0.07754        1.72236       -0.17848
