26

C          1.00587       -0.19423       -0.03466
C          0.57417       -0.21687        1.42722
C          1.08667        0.99104        2.25234
C          0.51323        2.29820        1.67641
C          0.75229        0.84418        3.77391
N          1.37576       -0.38255        4.30190
C          1.86163       -0.61625        5.53643
N          2.18318       -1.74800        6.02992
O          2.03981        0.42689        6.33651
C          1.14051        2.11573        4.53734
O          0.38866        2.78716        5.23175
O          2.42700        2.49342        4.37004
H          0.53149        0.62064       -0.58783
H          0.71727       -1.13089       -0.52303
H          2.09228       -0.09086       -0.12023
H         -0.52006       -0.26806        1.48025
H          0.95505       -1.15286        1.84683
H          2.17950        1.03043        2.14475
H         -0.58136        2.29439        1.70592
H          0.86375        3.17790        2.22398
H          0.82651        2.44625        0.63858
H         -0.33511        0.73871        3.88336
H          1.05437       -1.21907        3.83775
H          2.03125       -2.47714        5.33096
H          2.42112        0.07010        7.15610
H          2.53041        3.22459        5.01286
