30

C          2.35271       -0.39926        0.83716
C          0.93714       -0.20907        0.36513
C          0.14647       -1.37711        0.30446
C         -1.22082       -1.31613        0.04568
C         -1.82665       -0.08368       -0.14396
C         -1.05202        1.07686       -0.12570
C          0.34292        1.03656        0.07369
N          1.03567        2.26839       -0.02674
O          0.29982        3.39615        0.44526
C          2.31376        2.60843       -0.44822
O          2.78643        3.72336       -0.19609
C          3.10168        1.71017       -1.32212
C          4.49136        1.65125       -1.12807
C          5.27832        0.82065       -1.92756
C          4.68068        0.06536       -2.93488
C          3.30772        0.15904       -3.14493
F          2.74420       -0.55848       -4.12527
C          2.51030        0.98177       -2.35779
H          2.37968       -1.12427        1.65952
H          2.97913       -0.78876        0.03032
H          2.78256        0.52070        1.24028
H          0.59662       -2.35009        0.49708
H         -1.81342       -2.22678        0.02013
H         -2.89748       -0.01890       -0.31711
H         -1.54984        2.02831       -0.30598
H          0.99293        4.09090        0.45236
H          4.95933        2.24839       -0.34669
H          6.35228        0.76660       -1.76648
H          5.27631       -0.58784       -3.56535
H          1.44707        1.04039       -2.56623
