42

Cl         2.45566       -2.08325        2.69553
C          3.86108       -1.38700        2.05697
C          4.12936       -1.10229        0.77916
Cl         3.14443       -1.35690       -0.57491
C          5.47338       -0.40083        0.74768
Cl         6.31166       -0.39051       -0.79684
C          5.26470        1.03710        1.37442
C          4.23392        1.89628        0.61953
C          4.27892        3.38989        0.97103
C          2.96901        3.91038        1.59288
C          2.72602        3.60632        3.12492
C          3.78511        2.76350        3.85062
C          3.68293        1.26910        3.50763
C          4.96477        0.69179        2.88893
C          5.02867       -0.88658        2.88526
Cl         5.21129       -1.59762        4.48209
C          6.19512       -1.17904        1.89067
Cl         6.47488       -2.93210        1.55034
Cl         7.78907       -0.50076        2.37417
C          2.49862        5.04995        3.71631
Cl         1.74389        5.05958        5.30320
C          3.80424        5.80894        3.58819
Cl         4.84559        6.15862        4.87580
C          3.98452        6.07531        2.28977
Cl         5.30290        6.84215        1.55536
C          2.80779        5.48157        1.54261
Cl         2.50508        6.11228       -0.06932
C          1.67862        5.74943        2.58579
Cl         0.10020        4.97377        2.20330
Cl         1.32155        7.49569        2.88095
H          6.22345        1.57325        1.33765
H          3.22093        1.49845        0.73272
H          4.45522        1.82186       -0.45310
H          4.44548        3.92950        0.02982
H          5.14848        3.62423        1.59276
H          2.13930        3.46315        1.02779
H          1.77798        3.05631        3.20808
H          3.61867        2.85551        4.93149
H          4.79635        3.14622        3.68280
H          2.81135        1.06619        2.87760
H          3.48688        0.74112        4.44957
H          5.80538        1.06681        3.48960
