21

C          1.00304       -0.12359        0.14811
C          0.54733        1.25374        0.50579
C         -0.30239        1.97601       -0.24093
C         -0.76651        3.36089        0.11326
C         -0.34607        4.42441       -0.90822
C         -0.86779        4.22236       -2.33499
C         -2.38526        4.20318       -2.43270
H          0.61670       -0.44811       -0.82336
H          0.66777       -0.83729        0.90659
H          2.09607       -0.15364        0.10515
H          0.94612        1.66841        1.42887
H         -0.70714        1.54439       -1.15389
H         -1.85670        3.35023        0.22248
H         -0.36819        3.65278        1.09338
H         -0.68445        5.40333       -0.54552
H          0.74989        4.47255       -0.94493
H         -0.48954        5.04140       -2.95878
H         -0.46264        3.29882       -2.76294
H         -2.81703        5.11791       -2.01472
H         -2.69270        4.13169       -3.48099
H         -2.81209        3.34533       -1.90505
