35

C          1.02488       -0.05814       -0.25914
C          0.72466       -1.45942        0.25062
C          1.17340       -1.68702        1.69748
C          0.50134       -0.78598        2.74110
C         -1.02724       -0.87197        2.77437
C         -1.57310       -2.23933        3.19615
C         -1.31479       -2.62694        4.66000
C         -1.75681       -1.61755        5.72414
C         -3.25394       -1.51774        5.90142
O         -3.82386       -1.66424        6.97510
O         -3.86474       -1.21059        4.72923
C         -5.29838       -1.19403        4.73136
C         -5.85095       -2.60877        4.74797
H          0.47654        0.70305        0.30347
H          0.73041        0.03162       -1.30954
H          2.09468        0.16180       -0.18702
H         -0.34513       -1.66799        0.14170
H          1.24240       -2.18211       -0.39123
H          1.00131       -2.73825        1.95600
H          2.25843       -1.53722        1.75934
H          0.90629       -1.03174        3.72981
H          0.78810        0.25588        2.55623
H         -1.41099       -0.09198        3.44074
H         -1.43226       -0.62173        1.78755
H         -2.64869       -2.26210        2.99339
H         -1.15673       -3.02218        2.55193
H         -1.81203       -3.58679        4.84953
H         -0.24085       -2.80973        4.78707
H         -1.35246       -1.95326        6.68806
H         -1.34820       -0.61745        5.55560
H         -5.67870       -0.59318        5.56414
H         -5.60530       -0.69975        3.80336
H         -5.63303       -3.10557        5.69850
H         -6.93489       -2.60354        4.60506
H         -5.38982       -3.21463        3.96082
