24

O          1.02957       -0.16377        0.22321
C          2.22442       -0.00241        0.03183
O          2.92329        0.96521        0.67743
C          3.10731       -0.87281       -0.85203
N          2.80085       -2.29596       -0.72538
C          2.84777       -2.92048        0.38986
O          3.19325       -2.40193        1.58114
C          2.58156       -4.36737        0.52414
C          2.02828       -4.88704        1.70328
C          1.78260       -6.25598        1.82332
C          2.09557       -7.11475        0.76923
C          2.64759       -6.59233       -0.41001
N          2.99635       -7.50019       -1.50966
O          2.74173       -8.70447       -1.36522
O          3.53489       -7.01170       -2.51288
C          2.88374       -5.21826       -0.54443
H          3.85842        1.05382        0.40976
H          2.93666       -0.55736       -1.88687
H          4.16727       -0.71164       -0.63107
H          3.28939       -1.44215        1.58224
H          1.77674       -4.22499        2.52979
H          1.34818       -6.65045        2.73944
H          1.90507       -8.18055        0.88124
H          3.30735       -4.80572       -1.45810
