75

C          1.08672       -0.39135        0.47658
C          0.96389        1.08446        0.82294
C          1.39321        2.00139       -0.32505
C          0.58333        1.82492       -1.61372
C         -0.91949        2.06813       -1.44274
C         -1.26414        3.49892       -1.01729
C         -0.84123        4.55669       -2.04198
C         -1.50816        4.37390       -3.40940
C         -3.03488        4.48813       -3.35077
C         -3.51006        5.86721       -2.88282
C         -3.06501        6.99579       -3.81834
C         -3.62943        6.84593       -5.23466
C         -5.16008        6.89668       -5.26728
C         -5.71619        8.22952       -4.75642
C         -5.26366        9.42181       -5.60540
C         -5.74580        9.33149       -7.05667
C         -7.27315        9.32054       -7.17503
C         -7.92294       10.59716       -6.63121
C         -7.49898       11.85864       -7.39072
C         -7.88038       11.83062       -8.87445
C         -9.38978       11.72624       -9.11551
C        -10.18548       12.91825       -8.57436
C         -9.80072       14.26522       -9.19798
C         -9.97068       14.32071      -10.71293
O        -11.32730       14.11955      -11.07820
H          0.40577       -0.67428       -0.33195
H          0.83695       -1.00607        1.34610
H          2.10823       -0.63334        0.16702
H         -0.06522        1.30491        1.12784
H          1.59268        1.29786        1.69475
H          1.33245        3.04278        0.01284
H          2.45118        1.82270       -0.55107
H          0.98897        2.49700       -2.37872
H          0.73516        0.81612       -2.01275
H         -1.42553        1.82227       -2.38310
H         -1.33554        1.36927       -0.70954
H         -2.34276        3.56287       -0.83411
H         -0.79913        3.73089       -0.05333
H         -1.06682        5.55039       -1.63928
H          0.24601        4.54690       -2.17164
H         -1.09611        5.11077       -4.10728
H         -1.23887        3.40431       -3.84077
H         -3.44773        4.25623       -4.33849
H         -3.45284        3.72244       -2.68904
H         -4.60113        5.85528       -2.78767
H         -3.14598        6.07639       -1.87162
H         -3.36151        7.95674       -3.38499
H         -1.97254        7.04399       -3.87186
H         -3.20445        7.62726       -5.87340
H         -3.29286        5.90740       -5.68718
H         -5.50275        6.70216       -6.28894
H         -5.58527        6.08068       -4.67357
H         -6.80904        8.17196       -4.72307
H         -5.41805        8.39789       -3.71629
H         -5.61693       10.34738       -5.13932
H         -4.17192        9.50798       -5.59673
H         -5.32214       10.16480       -7.62673
H         -5.34450        8.43326       -7.53827
H         -7.54921        9.16534       -8.22310
H         -7.69105        8.45613       -6.64780
H         -9.01151       10.48288       -6.65856
H         -7.68329       10.72448       -5.56986
H         -7.94015       12.73366       -6.90197
H         -6.41616       12.00433       -7.30642
H         -7.47954       12.72568       -9.36175
H         -7.38429       10.99093       -9.37425
H         -9.57062       11.61053      -10.18940
H         -9.78067       10.80765       -8.66330
H        -11.25329       12.72959       -8.73239
H        -10.06219       12.98703       -7.48702
H        -10.43374       15.03550       -8.74182
H         -8.76613       14.51793       -8.94030
H         -9.67049       15.30644      -11.08168
H         -9.35050       13.58025      -11.22730
H        -11.56570       13.20388      -10.84257
