28

C          1.00868        0.24400        0.50970
C          0.62612        1.35683       -0.45470
C          1.05011        1.08651       -1.90075
C          0.52313       -0.21763       -2.50733
C         -1.00236       -0.30142       -2.63302
C         -1.58985        0.54352       -3.76876
C         -1.25349        0.04231       -5.17413
O         -1.96598       -1.17615       -5.45481
C         -1.40261       -2.38709       -5.34018
N         -0.21573       -2.70928       -5.00079
O         -2.27036       -3.35795       -5.62205
H          0.45681       -0.67704        0.29908
H          0.77430        0.53849        1.53733
H          2.08005        0.02661        0.45388
H         -0.45336        1.53282       -0.39966
H          1.10648        2.28551       -0.12387
H          0.74440        1.93499       -2.52372
H          2.14659        1.06039       -1.94143
H          0.99297       -0.34380       -3.48731
H          0.87181       -1.06540       -1.90683
H         -1.28949       -1.34892       -2.77357
H         -1.47164        0.00145       -1.69079
H         -2.68147        0.53633       -3.65480
H         -1.26461        1.58400       -3.66512
H         -1.61619        0.77735       -5.90167
H         -0.17946       -0.05411       -5.35254
H          0.33897       -1.88017       -4.80356
H         -1.79252       -4.19191       -5.49204
