12

Br        -2.83572       -0.53164        0.08012
C         -1.20016        0.41624        0.03512
C         -1.21149        1.81144        0.02406
C         -0.00576        2.51360       -0.00980
C          1.20479        1.81934       -0.03221
C          1.20313        0.42410       -0.02036
Br         2.84521       -0.51304       -0.04997
C          0.00393       -0.28554        0.01319
H         -2.15076        2.35857        0.04148
H         -0.00953        3.60088       -0.01873
H          2.14025        2.37261       -0.05869
H          0.00769       -1.37173        0.02211
