17

C          1.02897       -0.09507        0.11443
C          0.55663        1.34838        0.03460
C          0.88857        2.03909       -1.29205
C          0.33479        1.36833       -2.54634
C         -1.16186        1.45231       -2.64675
O         -1.79431        2.23880       -3.33214
O         -1.79579        0.54313       -1.88464
H          0.51996       -0.72879       -0.61730
H          0.81541       -0.50484        1.10693
H          2.10765       -0.16527       -0.05648
H         -0.52092        1.39166        0.22582
H          1.03321        1.91408        0.84467
H          0.52046        3.07162       -1.24185
H          1.97976        2.10164       -1.38792
H          0.74040        1.87848       -3.42926
H          0.64872        0.32405       -2.63895
H         -2.74671        0.72348       -2.03847
