51

C          1.26204       -0.00731       -2.41957
C          0.26018       -1.13082       -2.38066
O         -0.93614       -0.98471       -2.59972
O          0.85290       -2.28840       -1.97464
C         -0.01312       -3.31546       -1.42293
C          0.64528       -3.92052       -0.15433
N         -0.00427       -3.58114        1.15250
C         -0.43883       -4.72747        1.97589
C          0.70296       -5.39422        2.76078
O          1.20672       -4.57557        3.83605
C          2.33869       -3.83702        3.80938
C          3.12791       -3.73337        2.53864
O          2.69564       -3.22822        4.81663
C          0.04894       -2.30363        1.70565
C         -0.32039       -1.97061        3.02002
C         -0.18290       -0.66018        3.54340
C          0.26561        0.39065        2.74636
N          0.49587        1.68101        3.29242
N          0.86259        2.46034        2.38762
C          1.37324        3.65910        2.74131
S          0.51926        5.05724        2.20610
C          1.70033        6.10085        2.81822
N          1.57270        7.52297        2.64172
O          0.66987        7.94394        1.90885
O          2.40561        8.22026        3.23365
C          2.72975        5.43759        3.44584
C          2.55979        4.01341        3.36376
N          3.53641        3.06120        3.82964
O          4.26861        3.44274        4.75126
O          3.62195        1.98123        3.23577
C          0.56608        0.08146        1.42491
C          0.51185       -1.22728        0.96224
H          0.89753        0.81462       -1.79396
H          1.41222        0.33688       -3.44325
H          2.22358       -0.32522       -2.00231
H         -1.02109       -2.94451       -1.21243
H         -0.07669       -4.08829       -2.19628
H          0.60852       -5.01058       -0.27638
H          1.71041       -3.66342       -0.10815
H         -1.25716       -4.44635        2.64714
H         -0.87297       -5.48505        1.31020
H          0.29036       -6.28319        3.25302
H          1.49649       -5.76141        2.10867
H          2.79543       -2.87205        1.95911
H          4.18089       -3.58278        2.79845
H          3.10008       -4.63539        1.93191
H         -0.66665       -2.72707        3.71895
H         -0.40323       -0.48563        4.59381
H          3.58693        5.92973        3.89490
H          0.90912        0.84115        0.72935
H          0.91286       -1.36947       -0.01615
