18

C          1.85238        1.53350        0.00232
C          0.58919        0.71766        0.00231
C         -0.64795        1.38434        0.00218
C         -1.84732        0.67251        0.00152
C         -1.82792       -0.71723        0.00091
C         -0.60882       -1.39346        0.00175
C          0.60926       -0.69120        0.00303
C          1.87954       -1.49728        0.00503
H          2.44161        1.32138        0.90013
H          2.44676        1.31359       -0.89023
H          1.63887        2.60780       -0.00339
H         -0.68516        2.47173        0.00251
H         -2.79484        1.20427        0.00136
H         -2.75983       -1.27575        0.00000
H         -0.60950       -2.48169        0.00156
H          1.91518       -2.13345        0.89578
H          1.92005       -2.13059       -0.88751
H          2.77981       -0.87820        0.00884
