87

C          1.09173       -0.61662       -0.24666
C          0.91261       -0.51798        1.26064
C          1.33934        0.83781        1.82983
C          0.57062        2.04148        1.27396
C         -0.94414        1.98771        1.49823
C         -1.36428        2.01341        2.97192
C         -0.96624        3.29202        3.71803
C         -1.53646        4.57859        3.10967
C         -3.06829        4.63107        3.07562
C         -3.72454        4.60077        4.45859
C         -3.31034        5.75870        5.36973
C         -3.65728        7.14975        4.82481
C         -5.15992        7.41542        4.66091
C         -5.97104        7.27968        5.95589
C         -5.58541        8.30558        7.04612
C         -6.11542        9.71396        6.72670
O         -7.53305        9.75984        6.69738
C         -6.06141        7.84102        8.44044
C         -5.30734        6.62129        9.00039
C         -3.78480        6.78299        9.11271
C         -3.32455        7.91147       10.03866
C         -3.70563        7.71325       11.50841
C         -3.11549        6.45322       12.15373
C         -1.58289        6.40632       12.18176
C         -0.92458        7.55027       12.96099
C         -1.31056        7.61726       14.44264
C         -0.90620        6.39082       15.26830
C          0.59718        6.10398       15.30781
C          1.40749        7.23821       15.91672
H          0.44013        0.08419       -0.77707
H          0.84078       -1.62436       -0.59136
H          2.12789       -0.40734       -0.53055
H         -0.12965       -0.73293        1.52066
H          1.51451       -1.30033        1.73759
H          1.24065        0.80861        2.92133
H          2.40753        0.98677        1.62952
H          0.98140        2.95525        1.71875
H          0.76287        2.13363        0.19897
H         -1.40700        2.82606        0.96540
H         -1.35961        1.08953        1.02854
H         -2.45054        1.87796        3.02902
H         -0.93838        1.15101        3.49679
H         -1.28332        3.20246        4.76349
H          0.12595        3.37429        3.75458
H         -1.14378        5.43593        3.66771
H         -1.15729        4.70883        2.09017
H         -3.37836        5.53473        2.53921
H         -3.45993        3.79790        2.48176
H         -4.81349        4.59725        4.33540
H         -3.48687        3.65624        4.96180
H         -3.77706        5.60651        6.34686
H         -2.23235        5.71570        5.56230
H         -3.21546        7.90311        5.48549
H         -3.16740        7.30434        3.85706
H         -5.29862        8.41657        4.23863
H         -5.57175        6.72144        3.91856
H         -7.03611        7.37101        5.71362
H         -5.85996        6.25662        6.32525
H         -4.49911        8.40848        7.08594
H         -5.77784       10.42066        7.49275
H         -5.73167       10.07778        5.76797
H         -7.82387        9.33843        5.86953
H         -5.96318        8.66810        9.15388
H         -7.13127        7.60052        8.40208
H         -5.72281        6.38042        9.98580
H         -5.51464        5.74202        8.38090
H         -3.35506        5.83013        9.44169
H         -3.35052        6.95708        8.12419
H         -2.23664        8.01446        9.95081
H         -3.73391        8.86669        9.69074
H         -3.39401        8.59897       12.07346
H         -4.79679        7.67805       11.60293
H         -3.50603        6.36686       13.17379
H         -3.48318        5.56277       11.63132
H         -1.26902        5.44482       12.60401
H         -1.19455        6.41195       11.15660
H          0.16347        7.46026       12.86586
H         -1.17656        8.50766       12.49047
H         -0.86372        8.51701       14.88062
H         -2.39332        7.75963       14.53649
H         -1.26633        6.53170       16.29499
H         -1.42449        5.50237       14.88900
H          0.76166        5.19832       15.90368
H          0.97301        5.88291       14.30294
H          1.04490        7.48234       16.92028
H          2.46005        6.94952       15.99646
H          1.35945        8.14218       15.30240
