24

C          0.45712        0.04233        0.15222
N          0.24293       -0.08853       -1.26913
C         -0.46025       -1.03324       -1.95955
O         -0.81136       -0.76976       -3.10605
C         -0.86274       -2.34358       -1.31307
S          0.49046       -3.26840       -0.57139
P          2.02112       -3.56774       -1.98590
S          2.30541       -2.40175       -3.51981
O          3.37771       -3.68625       -1.08719
C          3.74930       -2.58617       -0.27759
O          1.87128       -5.13069       -2.42085
C          2.93682       -5.76539       -3.10380
H          0.07674       -0.80700        0.71762
H         -0.06369        0.94401        0.48461
H          1.52895        0.16829        0.32539
H          0.44543        0.72194       -1.84557
H         -1.61780       -2.13131       -0.54934
H         -1.33293       -2.97363       -2.07488
H          3.35772       -1.64216       -0.66624
H          3.37168       -2.74300        0.73640
H          4.83943       -2.52737       -0.24233
H          3.87581       -5.65367       -2.55561
H          2.71048       -6.83189       -3.18369
H          3.04279       -5.35926       -4.11253
