29

N          2.43674        0.28506       -0.05775
C          1.04868        0.17104        0.08626
C          0.46463       -1.08023        0.28495
C         -0.92546       -1.22620        0.30056
C         -1.76265       -0.12832        0.06330
C         -3.26485       -0.29792        0.03198
C         -3.77988       -0.88132       -1.26429
C         -3.78421       -2.26681       -1.47084
C         -4.20830       -2.80477       -2.68931
C         -4.68700       -1.97844       -3.70654
N         -4.98241       -2.51246       -4.96671
C         -4.63739       -0.59546       -3.52012
C         -4.20439       -0.04899       -2.30667
C         -1.17496        1.11539       -0.19628
C          0.21762        1.25583       -0.20067
H          2.95821       -0.42691        0.44328
H          2.78966        1.21981        0.11878
H          1.08729       -1.95950        0.42456
H         -1.34718       -2.21287        0.47311
H         -3.57623       -0.93434        0.87108
H         -3.75297        0.66793        0.21981
H         -3.43047       -2.93996       -0.69424
H         -4.15366       -3.87969       -2.83721
H         -5.60108       -1.93036       -5.52161
H         -5.28296       -3.48128       -4.93905
H         -4.92755        0.07412       -4.32520
H         -4.18074        1.03196       -2.19240
H         -1.79350        1.98165       -0.41769
H          0.64842        2.22432       -0.43967
