36

C          0.97207       -0.28597       -0.02241
C          0.61648        0.42897        1.27146
C          1.06413        1.89237        1.29433
C          0.42375        2.79147        0.22755
C         -1.10948        2.82955        0.23498
C         -1.65961        3.41735        1.50432
C         -2.47950        4.47798        1.53314
C         -2.97118        5.12747        2.79829
C         -2.56797        6.60849        2.88637
C         -3.06791        7.52472        1.76512
C         -4.56431        7.62618        1.65860
O         -5.23510        8.60832        1.93095
O         -5.14269        6.51197        1.17936
C         -2.94846        7.18659        4.22676
O         -2.19649        7.77747        4.98463
O         -4.25069        7.04850        4.52863
H          0.46047        0.15669       -0.88196
H          0.67457       -1.33769        0.03506
H          2.05074       -0.24816       -0.20440
H         -0.46166        0.35305        1.44913
H          1.10082       -0.09487        2.10416
H          0.86136        2.30386        2.29018
H          2.15364        1.93382        1.17170
H          0.80887        3.81105        0.36221
H          0.76221        2.47272       -0.76532
H         -1.43803        3.42256       -0.62829
H         -1.52339        1.82648        0.08968
H         -1.35579        2.95139        2.43883
H         -2.81561        4.91152        0.59335
H         -4.05698        5.00138        2.86573
H         -2.56336        4.60082        3.67225
H         -1.46864        6.64217        2.85622
H         -2.69304        8.54307        1.93237
H         -2.67248        7.22310        0.78880
H         -6.10231        6.71255        1.19369
H         -4.35807        7.53859        5.37198
