12

N          1.06644        0.00370        0.07465
C          2.32741        0.00370        0.07465
C          3.84741        0.00370        0.07465
C          4.40036        1.10328        0.98303
C          4.02616        0.96607        2.45780
Cl         4.68416       -0.52507        3.16732
H          4.20919       -0.98535        0.37302
H          4.19085        0.17668       -0.95181
H          5.49294        1.12190        0.88718
H          4.04037        2.07747        0.62770
H          4.43930        1.80505        3.02643
H          2.94268        0.96274        2.60570
