28

Cl        -2.18016        0.49168       -0.03882
C         -0.48139        0.22609       -0.03376
C          0.02680       -1.02361       -0.36835
C          1.41038       -1.23863       -0.38073
C          2.30787       -0.22189       -0.02856
C          3.83896       -0.39522       -0.02735
C          4.41819       -0.96853        1.28664
C          5.19013       -0.07687        2.07776
C          5.80509       -0.47467        3.26825
C          5.66316       -1.77753        3.71660
C          4.90222       -2.67293        2.97333
C          4.28314       -2.28113        1.77332
Cl         3.37910       -3.52510        1.00350
C          4.53268       -0.80840       -1.38103
Cl         4.03689        0.34106       -2.70350
Cl         6.33611       -0.64197       -1.25140
Cl         4.20234       -2.45467       -1.98846
C          1.76385        1.03603        0.31203
C          0.38325        1.26106        0.29779
H         -0.64421       -1.83858       -0.62766
H          1.74703       -2.22614       -0.67784
H          4.16331        0.65828        0.02543
H          5.33933        0.95711        1.76656
H          6.39848        0.23534        3.83977
H          6.13927       -2.09887        4.63927
H          4.79254       -3.69352        3.33672
H          2.41191        1.87037        0.57602
H         -0.00676        2.24553        0.54380
