23

Cl        -2.93533        0.89522       -0.82924
C         -1.44551        0.25021       -0.25847
C         -0.48867        1.09827        0.27455
C          0.69506        0.55356        0.74697
Cl         1.91055        1.58489        1.39694
C          0.91785       -0.83005        0.70162
C         -0.02595       -1.71946        0.15166
C          0.19201       -3.24327        0.07428
C          1.58923       -3.82752        0.24164
C          2.46912       -3.90434       -1.01885
Cl         2.53636       -2.37812       -1.94333
Cl         4.15929       -4.28010       -0.49071
Cl         1.96112       -5.23487       -2.10576
C         -0.97347       -4.14656        0.48809
O         -0.60841       -3.96586       -0.87917
C         -1.21542       -1.12968       -0.33092
H         -0.66162        2.17068        0.32025
H          1.86312       -1.19385        1.09349
H          2.10827       -3.27133        1.03056
H          1.50217       -4.84050        0.66154
H         -0.77655       -5.11700        0.92770
H         -1.90664       -3.70698        0.81973
H         -1.98551       -1.76048       -0.77183
