42

C          1.37492        0.17279       -0.12060
C          0.64488        1.28442        0.63490
C          0.98654        2.64286        0.01899
C         -0.88164        1.07258        0.63589
C         -1.36298       -0.18261        1.37712
C         -0.98641       -0.24220        2.86226
C         -1.56712        0.88963        3.71836
C         -3.09726        0.89583        3.82251
C         -3.70563       -0.35989        4.45924
C         -3.26259       -0.63008        5.90189
C         -3.67857        0.44204        6.91519
C         -5.19221        0.64248        7.06344
C         -5.95926       -0.60029        7.50561
O         -5.53355       -1.03264        8.78956
H          1.01665        0.09405       -1.15273
H          1.23428       -0.79816        0.36371
H          2.45242        0.36639       -0.15155
H          1.01422        1.30043        1.66628
H          0.64018        2.71088       -1.01741
H          0.52052        3.45384        0.58888
H          2.06882        2.81150        0.02835
H         -1.37258        1.95338        1.06680
H         -1.23666        1.01348       -0.40148
H         -2.45201       -0.25266        1.27201
H         -0.96597       -1.07508        0.87995
H         -1.30328       -1.21079        3.26494
H          0.10444       -0.23454        2.96480
H         -1.13264        0.82652        4.72250
H         -1.23850        1.85768        3.32339
H         -3.40517        1.78019        4.39228
H         -3.53132        1.02657        2.82450
H         -4.79785       -0.27945        4.41849
H         -3.45840       -1.23580        3.84864
H         -3.66121       -1.60201        6.21419
H         -2.17293       -0.74164        5.93894
H         -3.25133        0.18223        7.89119
H         -3.22428        1.40200        6.64322
H         -5.34795        1.43115        7.81011
H         -5.61487        1.01245        6.12301
H         -7.02648       -0.36697        7.57471
H         -5.85218       -1.42756        6.79776
H         -4.62205       -1.36125        8.70519
