36

C          1.11417       -0.04974        0.06587
C          0.56529       -0.02551        1.49599
C          1.12789        1.19362        2.24582
C         -0.96480       -0.12624        1.46617
C         -1.69729        1.07070        1.40101
C         -3.08517        1.07677        1.35089
C         -3.80636       -0.11276        1.35311
C         -5.21005       -0.04186        1.30084
C         -5.99062       -1.19117        1.29483
C         -5.37016       -2.42567        1.34731
C         -3.97321       -2.50245        1.40292
C         -3.12881       -1.35948        1.40139
C         -1.67781       -1.37097        1.44391
C         -0.89355       -2.69676        1.46273
C         -1.07624       -3.48002        2.76770
C         -1.08052       -3.55632        0.20625
H          0.77082        0.81969       -0.50705
H          0.79189       -0.94628       -0.47383
H          2.20924       -0.03805        0.06833
H          0.97223       -0.87240        2.05504
H          0.94154        2.13420        1.71761
H          0.69877        1.26948        3.25075
H          2.21477        1.10024        2.35409
H         -1.19742        2.03531        1.37719
H         -3.59690        2.03604        1.30642
H         -5.71120        0.92356        1.26231
H         -7.07331       -1.11958        1.25132
H         -5.96312       -3.33637        1.34638
H         -3.56161       -3.50324        1.45214
H          0.17519       -2.48308        1.43493
H         -2.09053       -3.85511        2.91509
H         -0.40630       -4.34675        2.78964
H         -0.83220       -2.85096        3.63145
H         -0.84793       -2.97551       -0.69333
H         -0.39713       -4.41304        0.23138
H         -2.08672       -3.95761        0.08441
