35

O          2.18357        0.47254        0.10817
C          1.02153        0.10784        0.01943
N          0.63487       -1.20411        0.06998
C         -0.80673       -1.38150        0.02103
C         -1.15877       -2.17050       -1.25204
C         -2.11747       -1.72440       -2.17806
C         -2.50061       -2.52551       -3.25804
C         -1.93903       -3.78720       -3.43251
C         -0.97459       -4.24433       -2.54089
C         -0.58095       -3.44215       -1.46782
C         -1.33508       -2.00670        1.32764
C         -2.30447       -3.02916        1.32814
C         -2.80764       -3.55460        2.52037
C         -2.37390       -3.05220        3.74150
C         -1.42866       -2.03183        3.77196
C         -0.90911       -1.51870        2.58010
C         -1.21369        0.12742       -0.03007
O         -2.35878        0.56350        0.01924
N         -0.07782        0.89117       -0.09337
C         -0.05992        2.31954       -0.00055
O         -0.48278        2.86698       -1.23529
H          1.30592       -1.94813        0.19049
H         -2.61270       -0.76153       -2.06720
H         -3.25757       -2.16838       -3.95263
H         -2.26122       -4.41688       -4.25783
H         -0.54356       -5.23445       -2.66724
H          0.14911       -3.84192       -0.76608
H         -2.70151       -3.43434        0.39922
H         -3.55129       -4.34715        2.48920
H         -2.78158       -3.44815        4.66760
H         -1.10215       -1.62553        4.72598
H         -0.17970       -0.71390        2.64730
H         -0.74957        2.64580        0.78384
H          0.94451        2.69039        0.22530
H          0.04880        2.42983       -1.91913
