22

C          0.74739        0.23625       -0.19749
C          0.44206        0.06326        1.27776
O          1.02673        1.10601        2.04947
P          2.75673        1.10601        2.04947
O          2.73129        2.57592        2.50607
O          2.73910        0.11236        3.38221
C          1.79042        0.17270        4.43942
C          1.57229        1.54087        5.05502
C          4.58673        1.10601        2.04947
Cl         5.10720       -0.56284        1.56186
Cl         5.17911        2.19399        0.73913
Cl         5.38062        1.52525        3.58551
H          0.45457        1.23348       -0.54084
H          0.21954       -0.51528       -0.79164
H          1.81973        0.13249       -0.39098
H         -0.63876        0.09938        1.44105
H          0.80481       -0.90538        1.63717
H          0.84179       -0.25958        4.10558
H          2.16619       -0.49642        5.22111
H          1.05162        2.21321        4.36781
H          0.94948        1.45516        5.95135
H          2.52178        2.00948        5.32634
