25

C          0.80680       -0.08278       -0.04132
C          0.26899        1.29616        0.28706
C          0.99002        2.44432       -0.39750
O          0.35295        3.43947       -0.75808
C          2.50331        2.42289       -0.54043
C          3.24252        3.03065        0.66331
C          3.21200        2.08882        1.87303
C          4.71699        3.34350        0.32919
C          4.89885        4.46727       -0.68134
H          0.83339       -0.24848       -1.12289
H          0.17188       -0.85230        0.40926
H          1.81852       -0.22492        0.34951
H         -0.78015        1.33784       -0.02993
H          0.28361        1.46631        1.36672
H          2.85711        1.41305       -0.76480
H          2.71024        3.00430       -1.44673
H          2.74709        3.96515        0.95740
H          3.59877        1.09717        1.61542
H          3.82120        2.48384        2.69326
H          2.19916        1.97316        2.26402
H          5.23847        3.63934        1.24837
H          5.21873        2.44022       -0.03916
H          4.36165        5.36810       -0.36894
H          5.96067        4.72071       -0.76816
H          4.54979        4.18032       -1.67671
