79

C          0.71440       -0.99539       -0.48185
O         -0.52187       -1.54910       -0.03635
C         -0.80470       -1.25188        1.26942
C         -0.94709        0.04640        1.72815
C         -1.35257        0.26834        3.04809
C         -1.62377       -0.77901        3.93790
C         -2.19745       -0.55386        5.32715
C         -1.54735        0.52439        6.19966
C         -2.13288        1.91340        5.94637
O         -3.28343        2.20333        6.20804
C         -1.30825        2.91225        5.21992
C         -1.89450        3.64870        4.17977
O         -3.23704        3.61363        3.91165
C         -1.09960        4.39550        3.30554
C          0.28862        4.41322        3.45590
O          0.98198        5.13968        2.54662
C          2.16403        5.90033        2.87029
O          1.99466        7.07560        3.64394
C          2.03608        6.93945        5.06121
C          0.59587        6.95395        5.62290
O          0.21858        5.78780        6.34140
C          3.11317        5.97269        5.61530
O          2.70766        5.18435        6.74430
C          3.90191        5.08509        4.61532
O          4.01267        3.74763        5.11316
C          3.49642        5.16736        3.12603
O          3.45008        3.95927        2.37308
C          4.68475        3.34458        2.00726
O          5.03991        2.33798        2.93958
C          4.49104        1.03063        2.71460
C          4.36946        0.35631        4.07747
C          3.16683        0.97837        1.91572
O          2.05225        1.34084        2.73580
C          3.20851        1.85866        0.64791
O          2.01998        2.68426        0.58546
C          4.47333        2.73481        0.60599
O          4.33477        3.74990       -0.39623
C          0.85534        3.64170        4.45494
C          0.06585        2.98052        5.39010
O          0.71257        2.47793        6.48390
C         -1.48280       -2.08683        3.45149
C         -1.09369       -2.30864        2.13052
O         -1.02961       -3.59582        1.67361
H          0.66369       -0.88811       -1.56944
H          1.52344       -1.69251       -0.24276
H          0.94205       -0.01201       -0.06224
H         -0.79825        0.89850        1.07082
H         -1.49518        1.29386        3.33271
H         -3.27131       -0.36160        5.21769
H         -2.10396       -1.49606        5.88350
H         -1.75565        0.31459        7.25746
H         -0.46334        0.48268        6.08919
H         -3.68869        3.11251        4.62722
H         -1.56367        4.93084        2.48050
H          2.34151        6.33203        1.87545
H          2.40530        7.93313        5.35119
H          0.48576        7.78982        6.32150
H         -0.12810        7.11235        4.81450
H         -0.75871        5.79821        6.36149
H          3.87789        6.63099        6.04960
H          1.75228        4.98353        6.62889
H          4.94108        5.43828        4.65132
H          3.80392        3.78362        6.06953
H          4.25658        5.82274        2.67231
H          5.48472        4.09248        1.96517
H          5.24967        0.48717        2.13768
H          3.61297        0.84695        4.69984
H          4.10328       -0.69956        3.97248
H          5.31419        0.42875        4.62683
H          2.98593       -0.06068        1.61729
H          1.32704        1.58905        2.13309
H          3.17794        1.23497       -0.25142
H          2.08252        3.27819        1.37172
H          5.33784        2.11739        0.33514
H          3.41390        4.07043       -0.32420
H          1.91756        3.50534        4.52765
H          0.22316        2.75783        7.27937
H         -1.71308       -2.94226        4.08075
H         -0.86351       -3.51041        0.71492
