36

C          1.20997       -0.28708        0.09253
C          0.32176       -0.44276        1.32151
C          0.74288        0.48037        2.46318
C          0.34529        1.85656        2.40950
C         -0.44443        2.43506        1.38067
C         -0.79416        3.78788        1.37477
C         -0.36628        4.61173        2.40192
C          0.40322        4.07600        3.43032
C          0.75782        2.71415        3.44520
C          1.52494        2.20960        4.50292
C          1.92765        0.86069        4.60903
C          1.53605       -0.01588        3.55984
C          1.95689       -1.35913        3.66394
C          2.68924       -1.83779        4.75092
C          3.06324       -0.98988        5.78752
C          3.79760       -1.50586        6.87127
C          4.20266       -0.68685        7.92048
C          3.87833        0.65890        7.89432
C          3.14279        1.17721        6.82288
C          2.70280        0.37595        5.73308
H          1.15651        0.72404       -0.32393
H          0.89343       -0.98266       -0.69137
H          2.25876       -0.49261        0.32932
H         -0.72554       -0.25344        1.05846
H          0.30962       -1.49201        1.62537
H         -0.80677        1.83423        0.55096
H         -1.39879        4.18914        0.56606
H         -0.62991        5.66537        2.40733
H          0.72817        4.73696        4.23158
H          1.80977        2.91580        5.27813
H          1.72229       -2.08835        2.89467
H          2.96340       -2.89062        4.77038
H          4.06166       -2.56099        6.90497
H          4.76961       -1.09912        8.75037
H          4.19179        1.31291        8.70389
H          2.91938        2.23902        6.86198
