16

O          1.40128       -0.62537        0.77191
C          2.35010       -0.13473        0.19012
O          2.92752        1.04299        0.51018
C          3.09246       -0.82085       -0.87756
C          4.18604       -1.61265       -0.51507
C          4.89280       -2.28350       -1.50958
Br         6.38383       -3.34686       -1.04331
C          4.51210       -2.17531       -2.84899
C          3.41481       -1.38454       -3.20375
C          2.70720       -0.70348       -2.21449
O          1.65541        0.09503       -2.55352
H          3.64534        1.30568       -0.09685
H          4.46763       -1.70605        0.53109
H          5.06408       -2.70346       -3.62356
H          3.13515       -1.30715       -4.25087
H          1.37780       -0.09841       -3.46544
