58

C          1.30737       -0.26782       -0.11776
C          0.58963       -1.56211       -0.50322
C          0.92424       -2.66002        0.51051
C         -0.93810       -1.38457       -0.59133
C         -1.43065       -0.30551       -1.56475
C         -0.99898       -0.48495       -3.03437
C         -1.59175       -1.74714       -3.65877
N         -1.47579        0.67341       -3.80760
C         -0.51776        1.52195       -4.37241
C         -0.66167        2.90623       -4.26150
C          0.28161        3.78377       -4.81862
C          1.37095        3.31170       -5.55147
N          2.36900        4.11837       -6.07972
C          2.21962        5.54529       -6.35855
C          3.44769        6.25419       -5.77952
C          2.14902        5.78732       -7.87813
C          0.89968        5.22736       -8.57328
C         -0.44872        5.79970       -8.09682
C         -0.53391        7.31693       -8.26484
C         -1.59261        5.12840       -8.86200
C          1.50986        1.92187       -5.65676
C          0.57586        1.04245       -5.09262
H          0.91798        0.13686        0.82258
H          1.19343        0.49708       -0.89199
H          2.38142       -0.44178        0.00877
H          0.97137       -1.89146       -1.47660
H          0.58042       -2.39229        1.51550
H          0.44993       -3.60633        0.22981
H          2.00516       -2.83036        0.55691
H         -1.39698       -2.34456       -0.85773
H         -1.32614       -1.13607        0.40559
H         -2.52776       -0.27797       -1.51206
H         -1.09980        0.67783       -1.20697
H          0.09259       -0.56146       -3.07056
H         -2.68539       -1.74880       -3.59247
H         -1.32667       -1.81623       -4.71975
H         -1.21699       -2.64931       -3.16610
H         -2.21622        1.18667       -3.33693
H         -1.50023        3.32771       -3.71416
H          0.13526        4.84432       -4.64773
H          2.98458        3.63607       -6.72814
H          1.34362        5.98724       -5.87849
H          4.37504        5.88102       -6.22886
H          3.39413        7.33383       -5.95419
H          3.51496        6.08991       -4.69825
H          2.22090        6.86266       -8.08057
H          3.02807        5.33582       -8.35816
H          1.00441        5.41701       -9.64998
H          0.88756        4.13602       -8.46267
H         -0.58836        5.56731       -7.03630
H         -0.34069        7.61365       -9.30115
H         -1.52883        7.68286       -7.98872
H          0.18786        7.82929       -7.62150
H         -1.57037        4.04257       -8.72079
H         -2.56342        5.49002       -8.50667
H         -1.52734        5.33328       -9.93605
H          2.35462        1.49836       -6.19395
H          0.71213       -0.02484       -5.24018
