53

C          1.69480       -0.19924        0.46734
C          0.71113       -0.72887        1.52582
C          0.82576        0.19673        2.77169
C         -0.78165       -0.58400        1.06320
O         -1.18780       -1.25642       -0.13010
C         -0.98794       -0.59644       -1.37659
C         -1.65796        0.75019       -1.47471
C         -0.89038        1.91463       -1.61020
C         -1.50481        3.16396       -1.63754
C         -2.89200        3.25763       -1.53475
C         -3.67616        2.10604       -1.41804
O         -5.03235        2.34042       -1.32429
C         -5.88293        1.26534       -1.29764
C         -6.64481        0.99641       -2.43383
C         -7.54434       -0.06900       -2.42398
C         -7.68441       -0.85242       -1.27692
C         -6.93976       -0.56114       -0.13223
C         -6.04876        0.51162       -0.13482
C         -3.05594        0.85328       -1.39825
C          1.14600       -2.16885        1.87648
C          0.52604       -3.29580        1.31923
C          0.97727       -4.59170        1.59688
C          2.06545       -4.80797        2.43906
O          2.39956       -6.11915        2.60833
C          3.52694       -6.42753        3.41632
F          4.63502       -5.82240        2.92017
F          3.32844       -5.97503        4.67944
Br         3.79462       -8.35044        3.44649
C          2.69693       -3.70701        3.00483
C          2.24818       -2.40893        2.71961
H          1.40526        0.79761        0.12101
H          1.76564       -0.86794       -0.39588
H          2.71106       -0.11343        0.87159
H          0.44150        1.20102        2.55490
H          0.25495       -0.20416        3.61744
H          1.86068        0.33549        3.10189
H         -1.41639       -1.00070        1.85687
H         -1.05853        0.47457        1.00354
H          0.07589       -0.53390       -1.61027
H         -1.41640       -1.24682       -2.14902
H          0.19297        1.85555       -1.68370
H         -0.90363        4.06421       -1.73211
H         -3.36705        4.23527       -1.54882
H         -6.53581        1.61319       -3.32117
H         -8.13705       -0.28732       -3.30835
H         -8.38098       -1.68708       -1.27263
H         -7.05567       -1.16850        0.76150
H         -5.47495        0.74830        0.75646
H         -3.63457       -0.06215       -1.30698
H         -0.31530       -3.20717        0.63938
H          0.47126       -5.43657        1.13494
H          3.55193       -3.80675        3.66714
H          2.80089       -1.58553        3.16516
