17

C          2.00764       -1.39960        0.00732
C          0.69350       -0.67108        0.00068
C         -0.48326       -1.43148       -0.00263
C         -1.70674       -0.78183       -0.00761
N         -1.84130        0.55799       -0.00926
C         -0.69698        1.27711       -0.00622
C          0.58632        0.72886       -0.00154
C          1.77894        1.63666        0.00036
H          2.08158       -2.02710        0.90180
H          2.08674       -2.03460       -0.88139
H          2.86811       -0.72589        0.00687
H         -0.45010       -2.51633       -0.00135
H         -2.63726       -1.34167       -0.01041
H         -0.84864        2.35382       -0.00774
H          2.38437        1.46802        0.89662
H          2.38880        1.46547       -0.89243
H          1.48294        2.69126       -0.00196
