23

C          1.01509        0.11039       -0.11318
C          0.66544       -1.05157       -1.02888
C          1.11084       -2.41045       -0.48501
C          0.46928       -2.85474        0.83719
C         -1.06838       -2.87659        0.88170
C         -1.67375       -3.96349        0.03386
O         -2.28282       -4.95066        0.41241
O         -1.52634       -3.74519       -1.28911
C         -1.54113       -3.00229        2.30781
O         -2.40494       -2.31557        2.83169
O         -0.93835       -3.98114        3.00994
H          0.49843        0.03597        0.84790
H          0.71953        1.05631       -0.57867
H          2.09293        0.14970        0.07389
H         -0.41034       -1.04933       -1.23207
H          1.15810       -0.89008       -1.99552
H          0.92879       -3.17206       -1.25138
H          2.19941       -2.39204       -0.34390
H          0.85333       -3.85802        1.06649
H          0.84363       -2.20477        1.63908
H         -1.47101       -1.91868        0.53218
H         -1.97375       -4.51042       -1.70947
H         -1.40704       -3.98819        3.87125
