29

C          1.00239       -0.08377        0.06188
C          0.21956       -0.74162        0.93616
C         -1.25633       -0.45347        0.99324
C          0.82368       -1.74195        1.90459
C          0.31811       -1.65696        3.34785
C          0.91888       -2.90297        3.97764
C          0.67612       -3.99515        2.92730
C         -0.64637       -4.71642        3.20385
O          1.72054       -4.96238        3.03543
C          0.78154       -3.26038        1.55382
C         -0.26062       -3.68814        0.52276
H          0.59771        0.65217       -0.62661
H          2.07345       -0.25763        0.01169
H         -1.84535       -1.35791        0.82787
H         -1.53171       -0.02930        1.96335
H         -1.55934        0.27084        0.22869
H          1.89725       -1.49648        1.97048
H          0.65475       -0.74494        3.85110
H         -0.77509       -1.69710        3.40454
H          0.46316       -3.12984        4.94713
H          1.99326       -2.76415        4.15455
H         -0.80817       -5.53715        2.49675
H         -0.62776       -5.18069        4.19730
H         -1.50503       -4.03955        3.16324
H          1.59332       -5.61552        2.32584
H          1.75497       -3.50399        1.10282
H         -0.11493       -3.16308       -0.42672
H         -0.17059       -4.75921        0.31117
H         -1.28250       -3.49990        0.86200
