34

N          2.40364       -0.14249        0.24105
C          1.01476       -0.02786        0.03193
C          0.26223       -1.21353        0.00404
C         -1.13320       -1.18928       -0.05736
C         -1.80766        0.02593       -0.05450
C         -1.08475        1.21470        0.03147
C          0.32146        1.19924        0.09500
C          0.98240        2.52539        0.24616
O          0.40901        3.50507        0.69973
O          2.25404        2.49940       -0.23287
C          2.96782        3.73954       -0.13512
C          2.70748        4.54787       -1.36679
C          2.17428        5.77957       -1.34135
C          1.85439        6.54523       -2.54952
C          2.18873        7.90246       -2.61397
C          1.84690        8.66212       -3.73547
C          1.15721        8.07349       -4.79432
C          0.80800        6.72595       -4.73341
C          1.15246        5.96561       -3.61428
H          2.81138       -0.97872       -0.16544
H          2.90325        0.70114       -0.04364
H          0.76514       -2.17732        0.04197
H         -1.69081       -2.12212       -0.08683
H         -2.89379        0.04984       -0.09339
H         -1.62269        2.16107        0.06368
H          2.72369        4.27095        0.79260
H          4.03404        3.49364       -0.08689
H          2.96020        4.07553       -2.31236
H          1.92879        6.25869       -0.39584
H          2.72018        8.37788       -1.79302
H          2.11371        9.71470       -3.77900
H          0.88471        8.66657       -5.66319
H          0.25842        6.26734       -5.55096
H          0.85109        4.92168       -3.57081
