18

C          0.97885       -0.14270        0.02625
N          0.58870       -1.46883        0.48501
C         -0.28347       -1.49841        1.66800
C         -1.66085       -2.02219        1.30349
O         -2.06099       -3.16572        1.47713
O         -2.42760       -1.12221        0.65319
C          1.01120       -2.60147       -0.15235
N          1.69360       -2.65910       -1.24362
N          0.71966       -3.78731        0.42136
H          0.62368        0.65576        0.68607
H          0.57404        0.05145       -0.97220
H          2.07093       -0.06289       -0.01314
H          0.14430       -2.13707        2.44965
H         -0.40936       -0.51151        2.12886
H         -3.21580       -1.63654        0.37836
H          1.87107       -1.71871       -1.59195
H         -0.25350       -3.93265        0.66851
H          1.02078       -4.53101       -0.20165
