23

Cl         1.37396        1.57636       -0.09074
C         -0.11149        0.70005        0.00396
C         -1.24212        1.38369        0.46088
C         -2.47169        0.72644        0.55990
C         -2.57567       -0.61639        0.18798
O         -3.72972       -1.36462        0.27995
C         -4.93211       -0.70248        0.17048
C         -5.31186       -0.17699       -1.07047
C         -6.54501        0.45649       -1.20691
C         -7.40258        0.55027       -0.11003
C         -7.03423        0.00407        1.12581
Cl        -8.15951        0.15907        2.42972
C         -5.79694       -0.63573        1.27219
Cl        -5.30723       -1.32506        2.78440
C         -1.44329       -1.30534       -0.25297
C         -0.21243       -0.64967       -0.35072
Cl         1.14232       -1.56303       -0.91291
H         -1.17092        2.42961        0.75145
H         -3.32726        1.27594        0.94291
H         -4.65051       -0.26569       -1.92916
H         -6.84239        0.87108       -2.16774
H         -8.36465        1.04550       -0.22526
H         -1.52569       -2.35689       -0.51813
