22

Cl        -2.09441        0.04155        0.04811
C         -0.37483        0.01867        0.02588
C          0.30345       -1.19292        0.12048
C          1.70147       -1.21031        0.10627
C          2.43603       -0.01784       -0.01289
C          3.91004       -0.03052       -0.01402
C          4.58051        0.52026        1.09188
C          5.97593        0.53790        1.16251
Cl         6.68021        1.24886        2.57414
C          6.74361       -0.00270        0.12376
Cl         8.47931        0.02062        0.22814
C          6.09664       -0.55752       -0.99581
Cl         7.03869       -1.23433       -2.29675
C          4.68608       -0.56623       -1.06631
Cl         3.88449       -1.21330       -2.47259
C          1.73019        1.19392       -0.10325
C          0.33223        1.21331       -0.08393
H         -0.24627       -2.12702        0.20442
H          2.21406       -2.16746        0.18401
H          4.00077        0.93768        1.91601
H          2.26549        2.13758       -0.19542
H         -0.19564        2.16038       -0.15681
