44

C          1.07837        0.06051       -0.01401
C         -0.22549        0.06051       -0.01401
C         -1.74549        0.06051       -0.01401
C         -2.29042        1.48223        0.03187
O         -2.20588       -0.58373       -1.19561
C         -2.19107       -0.76233        1.22843
C         -1.59484       -2.19043        1.38592
C         -0.12873       -2.36517        1.88414
C          0.26765       -1.58976        3.16645
C         -0.49292       -2.17901        4.36268
C          1.78922       -1.63339        3.50340
C          2.76324       -0.81315        2.64002
C          2.47664        0.69343        2.52464
C          3.01727        1.62328        3.61678
C          4.53340        1.79610        3.50007
C          2.34765        2.99771        3.45646
H          2.13208        0.03409       -0.16356
H         -1.96711        2.05526       -0.84500
H         -3.38604        1.47890        0.01836
H         -1.95500        2.01730        0.92711
H         -1.74476       -0.16613       -1.93974
H         -2.00546       -0.19340        2.14627
H         -3.28087       -0.88817        1.16115
H         -2.24138       -2.73001        2.09001
H         -1.69800       -2.72542        0.43297
H          0.01967       -3.43932        2.06671
H          0.56473       -2.14781        1.07143
H         -0.03331       -0.54471        3.06972
H         -0.24451       -3.23751        4.50146
H         -0.23553       -1.64946        5.28562
H         -1.57481       -2.09627        4.22857
H          1.93285       -1.30373        4.53956
H          2.12048       -2.68043        3.46894
H          3.78013       -0.96316        3.02064
H          2.77041       -1.25474        1.63741
H          2.92250        1.04318        1.58481
H          1.39957        0.85547        2.43846
H          2.76702        1.22328        4.60474
H          4.81363        2.17908        2.51100
H          4.90092        2.50944        4.24500
H          5.05760        0.84935        3.65415
H          1.26015        2.91741        3.56306
H          2.70743        3.70460        4.21011
H          2.55201        3.42575        2.46710
