86

C          1.20221        0.43825       -0.27134
C          1.00155       -0.70271       -1.25698
C          1.43414       -2.05825       -0.69269
C          0.69159       -2.47917        0.57926
C         -0.82722       -2.57593        0.40686
C         -1.26226       -3.66921       -0.57345
C         -0.85191       -5.07791       -0.13283
C         -1.39536       -5.46285        1.24864
C         -2.92628       -5.43064        1.33056
C         -3.60788       -6.33196        0.29941
C         -3.15045       -7.78559        0.39018
C         -3.64962       -8.47910        1.65827
C         -5.13936       -8.82781        1.59186
C         -5.50241       -9.76990        0.43975
O         -4.92161      -11.05061        0.69875
C         -3.65681      -11.31837        0.30622
O         -3.06762      -10.76283       -0.61100
C         -3.03776      -12.39754        1.17203
C         -3.59761      -12.50797        2.60191
C         -5.09770      -12.81538        2.73698
C         -5.61251      -13.85252        1.73589
C         -5.12627      -15.26179        2.06413
C         -5.70377      -15.79349        3.37848
C         -7.23668      -15.83277        3.39877
C         -7.83396      -16.75205        2.32837
C         -7.39876      -18.21321        2.47550
C         -7.79700      -18.83858        3.81653
C         -9.31053      -18.91123        4.04372
C        -10.06566      -19.73470        2.99787
C         -9.60170      -21.18202        2.94194
H          0.57597        0.31953        0.61818
H          0.93335        1.39120       -0.73585
H          2.24732        0.49442        0.04865
H         -0.04743       -0.73451       -1.57193
H          1.58492       -0.49764       -2.16163
H          1.30499       -2.82207       -1.46876
H          2.50863       -2.03066       -0.47570
H          1.09604       -3.43862        0.92157
H          0.91134       -1.77454        1.38858
H         -1.28244       -2.74851        1.38850
H         -1.23692       -1.61652        0.07496
H         -2.35054       -3.61954       -0.69600
H         -0.85224       -3.47300       -1.57006
H         -1.18881       -5.79688       -0.88871
H          0.23952       -5.16971       -0.12462
H         -1.02076       -6.45755        1.51454
H         -0.98475       -4.80229        2.01928
H         -3.23260       -5.71516        2.34284
H         -3.29195       -4.40668        1.19663
H         -4.69429       -6.26343        0.42054
H         -3.40682       -5.96305       -0.71272
H         -3.48967       -8.30119       -0.51033
H         -2.05977       -7.86289        0.34789
H         -3.05612       -9.38137        1.83365
H         -3.46691       -7.85800        2.54152
H         -5.40540       -9.30711        2.54309
H         -5.73743       -7.91380        1.52213
H         -6.58787       -9.91581        0.44058
H         -5.23668       -9.39608       -0.55132
H         -3.10857      -13.35191        0.64244
H         -1.97107      -12.15659        1.26260
H         -3.03726      -13.29523        3.12195
H         -3.39066      -11.57924        3.14831
H         -5.30338      -13.12073        3.76797
H         -5.68487      -11.89724        2.63236
H         -6.70587      -13.81091        1.70642
H         -5.31286      -13.60558        0.71269
H         -5.38907      -15.93043        1.23683
H         -4.03185      -15.27896        2.11920
H         -5.29179      -16.79001        3.56730
H         -5.35593      -15.18279        4.21805
H         -7.57030      -16.14069        4.39486
H         -7.64900      -14.82579        3.27248
H         -8.92632      -16.67781        2.36407
H         -7.55636      -16.39827        1.32860
H         -7.81543      -18.79449        1.64621
H         -6.31201      -18.29269        2.35845
H         -7.36035      -19.84064        3.88366
H         -7.34439      -18.27887        4.64300
H         -9.49398      -19.33726        5.03729
H         -9.73334      -17.89981        4.07054
H        -11.13417      -19.71356        3.24045
H         -9.96839      -19.27973        2.00590
H         -9.69248      -21.65620        3.92421
H        -10.20971      -21.74734        2.23005
H         -8.55963      -21.25980        2.61722
