17

O          1.35242       -0.33712       -0.42645
C          2.39977       -0.00958        0.11840
C          3.20564       -0.97542        0.88292
C          2.81202       -2.31615        0.98755
C          3.59087       -3.22908        1.71965
C          4.76451       -2.81104        2.35202
C          5.12426       -1.48360        2.23253
C          4.36826       -0.58066        1.51596
O          4.91027        0.66780        1.53414
C          6.06834        0.43532        2.35008
F          5.99147        1.23625        3.44007
F          7.16796        0.79787        1.64706
O          6.23004       -0.91870        2.78795
H          2.78060        1.02359        0.05730
H          1.89912       -2.65692        0.50060
H          3.27485       -4.26804        1.79318
H          5.37247       -3.50804        2.92008
