36

C          1.91248        1.12558       -0.04158
C          1.09870        1.45238       -1.28733
C          1.45589        0.53495       -2.46057
N          0.45881       -0.53452       -2.64623
C         -0.76417       -0.22084       -3.41550
C         -0.67341       -0.63902       -4.88510
Cl        -1.09001       -2.36062       -5.09717
C          0.65441       -1.78365       -2.07847
C          1.57070       -2.73316       -2.58948
N          2.32780       -2.48207       -3.81006
O          2.13560       -3.25842       -4.75563
O          3.17652       -1.58203       -3.79154
C          1.77493       -4.00662       -2.00960
C          1.07207       -4.38823       -0.86256
C          1.27198       -5.74866       -0.23644
F          0.32772       -6.64030       -0.63513
F          2.47560       -6.30271       -0.54275
F          1.21010       -5.71056        1.12194
C          0.14624       -3.48671       -0.33096
C         -0.04930       -2.22683       -0.93607
N         -1.01342       -1.37048       -0.27113
O         -0.62865       -0.77713        0.74472
O         -2.17227       -1.37952       -0.70559
H          1.82026        0.07369        0.24031
H          1.57913        1.73885        0.80127
H          2.97444        1.33410       -0.20918
H          0.02890        1.41291       -1.05566
H          1.32403        2.48868       -1.56669
H          1.49120        1.13247       -3.38005
H          2.46383        0.13634       -2.31611
H         -1.65651       -0.65657       -2.95992
H         -0.91862        0.86512       -3.38561
H         -1.39588       -0.07229       -5.47967
H          0.32549       -0.47301       -5.29936
H          2.48299       -4.70218       -2.46491
H         -0.42464       -3.75725        0.55923
