29

C          0.57496       -0.16481        0.16009
C          0.09548        0.52493       -1.08441
C         -0.93026       -0.22036       -1.89453
C          0.54062        1.72306       -1.51857
C          1.67388        2.54828       -0.95692
C          3.04029        1.84841       -0.88177
C          3.71681        1.65803       -2.24510
C          3.08112        0.54881       -3.08781
C          3.73379        2.99853       -2.98097
C          2.36451        3.66709       -2.99078
O          1.79696        3.78107       -1.68513
H         -0.25988       -0.64864        0.67803
H          1.02032        0.53294        0.87559
H          1.31406       -0.93173       -0.09202
H         -1.86142        0.34954       -1.96665
H         -0.54853       -0.41073       -2.90411
H         -1.16386       -1.19338       -1.45027
H          0.06873        2.13729       -2.40777
H          1.38279        2.84525        0.05821
H          3.70157        2.49026       -0.28227
H          2.98812        0.89433       -0.34977
H          4.75501        1.35244       -2.06091
H          3.72903        0.29949       -3.93486
H          2.94301       -0.36301       -2.49716
H          2.11255        0.83435       -3.50619
H          4.10422        2.87808       -4.00516
H          4.43753        3.66110       -2.46096
H          1.66985        3.14340       -3.65498
H          2.46474        4.68318       -3.38757
