38

C          3.06257        1.43516       -0.66837
O          2.44940        2.72349       -0.52107
C          1.77527        2.88386        0.65707
O          1.98010        2.20700        1.66301
C          0.62892        4.03542        0.60042
S          1.02525        5.01292        1.94445
C          0.23000        5.51586        0.54693
C         -1.51728        5.05795       -0.17376
C         -1.19274        3.98416       -0.14509
S         -2.30660        2.67683       -1.13020
O         -3.58864        2.85272       -0.48055
O         -2.11478        2.99479       -2.52708
N         -1.79267        1.11055       -0.80876
C         -1.57956        0.65685        0.49433
O         -1.79747       -0.51260        0.77385
N         -1.19091        1.55963        1.42997
C         -0.72241        2.79811        1.03792
N         -1.41033        4.41160        1.82598
C         -1.40514        6.22156        1.15781
C         -2.17083        7.28985        1.86082
N         -0.67413        6.50839       -0.65103
C          0.05316        4.86698       -1.42984
O          0.44504        5.03111       -2.74579
C          1.85896        4.95395       -2.79548
N          0.05301        3.01916       -0.78222
H          2.61398        0.93998       -1.53597
H          2.92771        0.76966        0.19202
H          4.13087        1.56734       -0.85010
H          0.73243        6.52217        0.44793
H         -2.31766        5.59417       -0.74605
H         -2.15392        0.42703       -1.46592
H         -1.42571        1.38917        2.39515
H         -1.51598        8.13712        2.07554
H         -3.00259        7.62387        1.23577
H         -2.56883        6.89859        2.80097
H          2.33915        5.51503       -1.98421
H          2.18266        3.91016       -2.78893
H          2.18767        5.39903       -3.74005
