27

C          1.19394        0.01664        0.04988
C          0.50157        1.22952        0.61205
O         -0.43746        1.76253        0.02414
C          0.94412        1.76065        1.93124
C          0.02931        2.50077        2.68666
C          0.39879        3.02013        3.93055
C          1.69271        2.82776        4.43969
C          2.07928        3.40301        5.73719
C          1.35582        3.10524        6.90406
C          1.69995        3.67903        8.13088
C          2.77459        4.56096        8.21069
C          3.50920        4.86388        7.06696
C          3.16544        4.28745        5.84102
C          2.60383        2.08876        3.66713
C          2.23496        1.55318        2.42574
H          0.71838       -0.25829       -0.89713
H          1.08677       -0.82417        0.74055
H          2.24666        0.22432       -0.15188
H         -0.97729        2.67690        2.31160
H         -0.33071        3.59760        4.49592
H          0.51403        2.41673        6.86386
H          1.12536        3.43927        9.02179
H          3.03745        5.01421        9.16292
H          4.34516        5.55608        7.12525
H          3.74124        4.55204        4.95644
H          3.61549        1.92155        4.03404
H          2.97851        0.99923        1.86080
