36

C          3.03127       -0.92884        0.77785
O          2.13366       -1.21419        1.85575
C          1.28152       -2.24934        1.67460
O          1.24195       -2.97487        0.68537
N          0.39798       -2.43995        2.71627
C         -0.06679       -1.61615        3.69489
S         -0.72687       -2.30112        5.06995
N          0.01243       -0.26936        3.61714
C         -0.08086        0.62072        2.51811
C          0.46418        1.89657        2.74069
C          0.42762        2.87908        1.75241
C         -0.19735        2.61249        0.54308
C         -0.77433        1.36155        0.32194
C         -0.69861        0.34290        1.27949
N         -1.45419       -0.83059        1.09154
C         -1.69534       -1.59095       -0.01605
S         -2.98081       -2.66301        0.05082
N         -0.71445       -1.78634       -0.95188
C         -0.14309       -0.84516       -1.77253
O          1.06510       -0.71232       -1.86271
O         -1.07084       -0.12777       -2.45921
C         -0.55001        0.86366       -3.35024
H          2.69043       -0.02285        0.26993
H          3.12481       -1.74555        0.05600
H          4.01902       -0.73568        1.20509
H          0.02874       -3.38010        2.74252
H          0.01721        0.18416        4.52571
H          0.95062        2.13165        3.68441
H          0.86439        3.85713        1.93759
H         -0.27898        3.38950       -0.21276
H         -1.38200        1.24024       -0.56744
H         -1.94350       -1.15409        1.92155
H          0.05971       -2.30562       -0.54356
H          0.49471        1.12626       -3.15606
H         -0.65494        0.50467       -4.37701
H         -1.15104        1.76954       -3.23212
