23

Cl        -2.76267        0.07657        0.76217
C         -1.20375       -0.51319        0.29479
C         -0.94438       -1.86685        0.52518
C          0.28695       -2.41088        0.16897
C          1.26704       -1.60451       -0.41796
O          2.40928       -2.26620       -0.81174
C          3.62069       -1.85263       -0.30411
C          4.71339       -2.00235       -1.16227
C          5.98520       -1.59964       -0.75697
C          6.16947       -1.06164        0.51527
C          5.08529       -0.94000        1.38606
C          3.80939       -1.34352        0.98250
C          1.00380       -0.24900       -0.68877
Cl         2.17030        0.71296       -1.54559
C         -0.23404        0.30519       -0.30902
Cl        -0.57699        1.98668       -0.59455
H         -1.70355       -2.50548        0.97248
H          0.48083       -3.46877        0.33508
H          4.56825       -2.41466       -2.15730
H          6.82805       -1.69932       -1.43582
H          7.15912       -0.73868        0.82882
H          5.23603       -0.52684        2.38029
H          2.98308       -1.25031        1.67982
