124

C          2.56794        0.71792        0.41155
O          1.66835        0.20387       -0.56100
C          2.08447        0.20632       -1.90613
C          2.26287       -1.23663       -2.36343
C          0.91005       -1.83843       -2.37570
O          0.20251       -2.33977       -1.17446
C         -0.61201       -2.00920        0.12420
C          0.86228       -3.14259        0.44234
C          2.36741       -2.45436        0.59511
C          1.32255       -4.53824       -0.48398
O          1.98337       -5.40751        0.09322
O          1.13104       -4.58580       -1.88660
C          1.64460       -5.62902       -2.93465
C          1.43376       -7.01921       -2.36733
C          1.01630       -5.56416       -4.55994
C          1.25011       -6.81270       -5.43706
C         -0.33824       -4.72086       -4.77239
O          0.16740       -3.32311       -4.84490
C          1.19737       -2.80937       -5.57419
C          0.71171       -1.72463       -6.47610
O          2.38817       -3.06053       -5.44223
C         -1.67798       -4.52537       -5.78591
C         -1.36843       -4.79383       -7.26976
C         -3.30905       -4.88390       -5.28807
O         -3.65818       -6.05407       -5.15124
C         -4.57373       -3.66270       -5.15004
C         -4.42487       -2.60366       -6.39125
O         -5.38354       -3.63613       -6.35677
C         -5.65090       -3.33502       -3.63696
C         -5.40899       -2.24540       -2.05676
C         -6.87327       -2.13870       -1.52289
C         -4.32017       -2.43112       -0.52540
O         -4.23019       -3.80401       -0.40632
C         -3.26507       -4.09618       -1.39104
O         -3.64673       -3.72426       -2.70850
C         -3.23245       -2.51492       -3.39064
C         -4.01483       -1.23771       -3.97534
C         -1.88811       -2.22112       -3.08758
C         -1.83353       -1.60281       -1.72411
N         -1.36582        0.05698       -0.94311
C         -1.94633        1.37599       -1.33422
C         -0.92227        0.32944        0.52280
C         -1.96295       -3.43366       -1.00061
O         -1.59180       -4.05075        0.40811
C         -1.54860       -4.08086        1.75401
C         -2.27977       -3.09657        2.60933
O         -0.79737       -4.88280        2.31127
C         -2.72114       -1.67852        0.23895
C         -3.53090       -0.29344        0.95264
O          0.27645       -1.22177       -3.52420
C         -0.04258        0.15970       -3.58123
C         -1.56293        0.45046       -3.80767
C          1.06555        0.94856       -2.85602
O          0.80511        2.36683       -2.76517
C          0.94746        3.32382       -1.84292
C          0.65944        3.09982       -0.40221
O          1.17428        4.47247       -2.21975
H          2.08448        0.62028        1.39279
H          2.75220        1.76933        0.22050
H          3.51262        0.17869        0.44076
H          3.05403        0.69300       -1.98062
H          2.62696       -1.23372       -3.39966
H          2.96881       -1.88667       -1.85047
H          1.10183       -2.79504       -2.84697
H         -0.32872       -1.72615        1.14571
H          0.77741       -3.45183        1.48133
H          2.57425       -2.01666        1.57901
H          3.17519       -3.18700        0.41916
H          2.64754       -1.68587       -0.09881
H          2.73456       -5.45468       -3.03742
H          1.83555       -7.80204       -3.01557
H          1.93272       -7.14122       -1.40435
H          0.36480       -7.16951       -2.21695
H          1.81686       -4.97546       -4.99936
H          0.85709       -6.66908       -6.45074
H          2.33424       -6.97848       -5.57871
H          0.83688       -7.73213       -5.02587
H         -0.82306       -4.88575       -3.81032
H         -0.27142       -1.37495       -6.15543
H          1.40695       -0.88238       -6.41085
H          0.65197       -2.10147       -7.49591
H         -1.76272       -3.42929       -5.81799
H         -1.95057       -4.11391       -7.91004
H         -0.31740       -4.58655       -7.51210
H         -1.60886       -5.80952       -7.58505
H         -3.53239       -2.67420       -7.01565
H         -4.79062       -1.58052       -6.40872
H         -5.94464       -4.33053       -3.29631
H         -6.52880       -2.87716       -4.12468
H         -5.31185       -1.19091       -2.30722
H         -7.01089       -1.18339       -0.99494
H         -7.59822       -2.12161       -2.34594
H         -7.11789       -2.95180       -0.84216
H         -5.03771       -2.06267        0.22633
H         -3.21423       -5.18733       -1.32280
H         -2.96730       -2.95256       -4.31806
H         -3.52967       -0.89934       -4.89064
H         -5.04761       -1.34398       -4.31989
H         -4.04864       -0.36785       -3.31905
H         -1.48664       -1.84913       -4.00499
H         -1.34609       -3.16290       -3.07660
H         -0.90487       -1.30020       -2.00744
H         -3.02755        1.39272       -1.43300
H         -1.74030        2.17917       -0.61869
H         -1.44687        1.85119       -2.17498
H         -1.07988        1.36370        0.85783
H         -1.41801       -0.18721        1.34814
H          0.11469        0.15209        0.74848
H         -1.24621       -4.03372       -1.55992
H         -2.09510       -2.05531        2.37134
H         -1.87864       -3.16807        3.62965
H         -3.33966       -3.33263        2.62312
H         -2.93666       -0.97367       -0.54712
H         -3.06677        0.70077        0.90469
H         -4.38141       -0.05082        0.26673
H         -3.96069       -0.45155        1.93212
H          0.15942        0.37419       -4.63249
H         -1.88955       -0.24099       -4.56528
H         -1.88701        1.41020       -4.19901
H         -2.26880        0.20847       -3.01855
H          1.74374        0.96376       -3.72101
H          1.45776        3.50574        0.22220
H         -0.27220        3.59667       -0.11960
H          0.55582        2.06057       -0.17658
