42

C          0.58271        0.14414        0.18188
O          0.84576        0.54858       -1.16359
C          1.11344        1.89514       -1.23866
C          0.10986        2.71369       -1.75888
C          0.33563        4.08285       -1.89756
C          1.56586        4.64287       -1.52710
C          1.82825        6.07894       -1.69731
C          1.08468        7.04451       -1.00203
C          1.35256        8.40703       -1.16381
C          2.36465        8.82331       -2.02647
C          3.11002        7.87949       -2.72801
C          2.84390        6.51847       -2.56326
C          2.56368        3.79562       -1.00385
C          2.37841        2.40932       -0.89106
N          3.33547        1.54151       -0.30340
N          4.68814        1.90454       -0.43155
C          5.65364        1.05152        0.06254
O          6.79079        1.43554        0.29848
O          5.18614       -0.21347        0.24576
C          6.05112       -1.21720        0.81801
C          7.22866       -1.54807       -0.09140
C          6.46850       -0.87670        2.24541
H         -0.21765       -0.60154        0.15664
H          0.26423        0.96772        0.83116
H          1.47363       -0.33595        0.59826
H         -0.84392        2.28603       -2.05431
H         -0.45036        4.71264       -2.30965
H          0.29701        6.73861       -0.31670
H          0.77236        9.14309       -0.61334
H          2.57247        9.88272       -2.15224
H          3.89783        8.19982       -3.40483
H          3.43120        5.79488       -3.12562
H          3.49125        4.25656       -0.67952
H          3.17846        0.58208       -0.63368
H          4.93123        2.88342       -0.36372
H          5.42613       -2.11668        0.87482
H          7.94102       -0.72089       -0.15971
H          7.76978       -2.42521        0.27722
H          6.87869       -1.75399       -1.10836
H          5.59378       -0.60517        2.84586
H          6.96616       -1.72933        2.71844
H          7.15745       -0.02777        2.28191
