24

C         -1.54197       -1.73726       -0.00834
C         -0.40954       -0.75221       -0.01928
N          0.82644       -1.30293       -0.04457
C          1.87781       -0.46016       -0.03937
C          1.77801        0.93033       -0.02810
C          3.06087        1.71633       -0.01233
O          3.63320        1.66739        1.28602
C          0.48679        1.50719        0.01108
C          0.33926        3.00900        0.06084
N          0.76363        3.53112        1.35522
C         -0.61921        0.63403        0.01721
O         -1.91601        1.06869        0.05290
H         -1.47502       -2.38271       -0.89013
H         -1.47571       -2.36172        0.88869
H         -2.52682       -1.26316       -0.01567
H          2.84927       -0.94979       -0.03681
H          3.77420        1.28932       -0.72606
H          2.93622        2.76344       -0.29665
H          2.94203        1.99634        1.89071
H          0.93312        3.46199       -0.74112
H         -0.68382        3.33695       -0.13925
H          0.64116        4.54350        1.36675
H          0.15781        3.16197        2.08786
H         -1.96770        2.00737        0.27963
