16

C          0.92587       -0.07418       -0.05614
C          0.48444        1.27970       -0.56083
C         -0.56117        1.41384       -1.49580
Cl        -1.39797        0.02316       -2.11224
C         -0.95828        2.68361       -1.94147
O         -1.97435        2.78168       -2.86351
C         -0.33520        3.83850       -1.45605
Cl        -0.88146        5.37313       -2.05935
C          0.68859        3.73414       -0.50706
Cl         1.45049        5.17174        0.10880
C          1.08909        2.45854       -0.05798
Cl         2.33810        2.32139        1.15082
H          0.59555       -0.90149       -0.68853
H          0.53486       -0.24124        0.95263
H          2.01844       -0.14726       -0.04052
H         -2.12319        3.72544       -3.06242
