15

O          1.06849       -0.00145        0.08919
C          2.29039        0.01219        0.08895
N          3.06302        1.15032        0.08902
C          4.37225        0.76592        0.08964
C          5.52589        1.51326        0.09098
C          6.72516        0.79750        0.09233
Cl         8.21946        1.65351        0.09561
C          6.73821       -0.61307        0.09164
C          5.53987       -1.33706        0.09007
C          4.36722       -0.61397        0.08934
O          3.08632       -1.14118        0.08873
H          2.68392        2.08297        0.08935
H          5.50893        2.59593        0.09140
H          7.68594       -1.14752        0.09257
H          5.53439       -2.42133        0.08975
