12

Cl         1.04505        0.19066        0.15654
C          2.76446        0.12591       -0.00085
C          3.45484        1.34162       -0.05049
C          4.84494        1.35740       -0.17734
C          5.55019        0.15806       -0.25461
C          4.86683       -1.05830       -0.20536
C          3.47329       -1.07822       -0.07873
Br         2.62380       -2.77588       -0.02071
H          2.91348        2.28292        0.00926
H          5.37649        2.30546       -0.21582
H          6.63333        0.16900       -0.35342
H          5.43035       -1.98652       -0.26668
