25

C          1.28161       -1.11157        0.33027
O          0.25202       -0.89996       -0.62987
N          0.86562       -0.71568       -1.91442
C          0.40221        0.57237       -2.39824
C          0.61446       -1.84058       -2.70598
O         -0.00602       -2.83575       -2.32108
N          1.02680       -1.81893       -4.01194
C          2.10330       -1.16989       -4.63851
C          3.16816       -0.58931       -3.94452
C          4.21648        0.02164       -4.64167
C          4.20309        0.04521       -6.03472
Br         5.61365        0.87957       -6.97502
C          3.15984       -0.55015       -6.73773
C          2.11904       -1.16773       -6.03889
H          0.81259       -1.26808        1.30530
H          1.93010       -0.23220        0.39121
H          1.86883       -1.99974        0.07747
H          0.95835        0.88572       -3.28324
H         -0.65870        0.50363       -2.66282
H          0.53799        1.32531       -1.61585
H          0.54931       -2.52720       -4.55717
H          3.22518       -0.62617       -2.86088
H          5.03995        0.46529       -4.08841
H          3.14498       -0.54077       -7.82460
H          1.30992       -1.62527       -6.60322
