22

C          1.03319        0.23617       -0.11949
C          0.53167       -0.41446       -1.39932
C          0.90912       -1.89438       -1.53006
C          0.46567       -2.80231       -0.37598
N         -0.98649       -2.79247       -0.20842
C         -1.43844       -3.65849        0.88040
C         -1.14584       -3.08875        2.26239
H          0.54350       -0.18527        0.76355
H          0.81709        1.30926       -0.13438
H          2.11470        0.10893       -0.01088
H         -0.55517       -0.29227       -1.46736
H          0.95495        0.12499       -2.25533
H          0.49278       -2.27663       -2.47093
H          1.99985       -1.97103       -1.62494
H          0.79932       -3.82248       -0.60091
H          0.97478       -2.49150        0.54189
H         -1.31233       -1.84233       -0.04032
H         -2.52394       -3.77307        0.78079
H         -1.01292       -4.66371        0.78294
H         -1.53977       -2.07195        2.36412
H         -1.61873       -3.70910        3.03063
H         -0.07220       -3.06437        2.47198
