36

C          5.71646        0.50573       -0.00170
C          4.95026        1.66083       -0.00169
C          3.55498        1.57175       -0.00077
C          2.87506        0.32702        0.00010
C          3.68456       -0.83763        0.00002
C          5.08630       -0.73556       -0.00083
C          3.08718       -2.09982        0.00068
C          1.70155       -2.23148        0.00122
C          0.87173       -1.10584        0.00118
C         -0.52756       -1.27115        0.00129
C         -1.43785       -0.18741        0.00098
C         -0.86933        1.10353        0.00116
C         -1.69809        2.22981        0.00112
C         -3.08365        2.09929        0.00042
C         -3.68182        0.83760       -0.00024
C         -5.08358        0.73721       -0.00153
C         -5.71506       -0.50332       -0.00233
C         -4.95004       -1.65926       -0.00162
C         -3.55456       -1.57184       -0.00030
C         -2.87330       -0.32788        0.00025
C          0.52968        1.26879        0.00114
C          1.43987        0.18529        0.00085
H          6.80110        0.56769       -0.00244
H          5.43136        2.63537       -0.00243
H          3.00394        2.50761       -0.00088
H          5.70327       -1.63193       -0.00090
H          3.69662       -3.00106        0.00065
H          1.27566       -3.23283        0.00156
H         -0.91094       -2.28835        0.00140
H         -1.27137        3.23079        0.00145
H         -3.69229        3.00105        0.00022
H         -5.69950        1.63431       -0.00209
H         -6.79978       -0.56397       -0.00351
H         -5.43237       -2.63319       -0.00217
H         -3.00442       -2.50824        0.00016
H          0.91288        2.28600        0.00116
