28

C          2.59383        1.73250        0.11926
C          1.23227        1.10953       -0.01836
C          0.08839        1.91939        0.07969
C         -1.20645        1.38499       -0.06382
C         -2.40182        2.31025        0.07704
C         -3.25923        2.16608        1.32641
C         -2.88989        1.33393        2.39951
C         -3.72228        1.17480        3.51101
C         -4.92555        1.86825        3.58054
Cl        -5.95370        1.65954        4.94351
C         -5.29834        2.73025        2.55655
C         -4.47029        2.87982        1.43979
Cl        -4.99225        3.98237        0.21226
C         -1.33659        0.01164       -0.32791
Cl        -2.87882       -0.73062       -0.56801
C         -0.21006       -0.80965       -0.39162
C          1.06440       -0.26539       -0.23101
Cl         2.41507       -1.34010       -0.30064
H          3.08041        1.38752        1.03669
H          3.21847        1.48268       -0.74484
H          2.53177        2.82525        0.16261
H          0.20827        2.98678        0.26617
H         -3.02656        2.17026       -0.81467
H         -2.04818        3.34961        0.03961
H         -1.95629        0.77540        2.38653
H         -3.42615        0.50261        4.31245
H         -6.23300        3.28117        2.62320
H         -0.32561       -1.87654       -0.56641
