30

C          0.87561       -0.15859        0.09190
C          0.75488       -1.63757       -0.24652
O          1.23288       -2.48061        0.81333
C          2.57819       -2.45971        1.02058
O          3.38636       -1.82540        0.35549
C          2.89542       -3.25030        2.18434
N          2.32165       -4.45961        2.48214
C          2.89916       -5.01096        3.60144
C          2.52435       -6.32128        4.07755
O          1.67880       -7.02509        3.53120
C          3.81562       -4.09033        4.09585
C          4.65411       -4.21741        5.33506
C          6.13423       -4.40312        5.03553
C          3.80720       -2.97069        3.19417
C          4.60792       -1.71576        3.29869
H          0.44364        0.05495        1.07451
H          0.36905        0.45097       -0.66205
H          1.92135        0.16175        0.12849
H         -0.30396       -1.88212       -0.38256
H          1.26745       -1.88229       -1.18334
H          1.60832       -4.92002        1.92875
H          3.04620       -6.68589        4.97758
H          4.51533       -3.32292        5.95420
H          4.31004       -5.06114        5.94303
H          6.54904       -3.53985        4.50532
H          6.69565       -4.52140        5.96781
H          6.30580       -5.28962        4.41647
H          5.41874       -1.72076        2.56395
H          3.97446       -0.84166        3.11230
H          5.04366       -1.59339        4.29388
