21

C          2.48798       -1.07300        0.01156
C          1.19812       -0.30620        0.01696
C          1.19029        1.08691       -0.07042
C         -0.02075        1.77484       -0.11153
C         -1.23344        1.06970       -0.05442
S         -2.72691        2.01518       -0.12717
O         -2.91810        2.46413       -1.48910
O         -3.76845        1.31114        0.59412
O         -2.41854        3.35406        0.72320
C         -1.25654       -0.32337        0.10005
N         -2.42726       -1.09571        0.03970
C         -0.02399       -0.99597        0.07798
H          2.53854       -1.73460        0.88247
H          2.56511       -1.67209       -0.90136
H          3.35329       -0.40316        0.05241
H          2.12332        1.64339       -0.12618
H         -0.01321        2.85828       -0.20497
H         -2.93607        4.08165        0.31880
H         -2.34447       -2.01359        0.46643
H         -3.26330       -0.60777        0.37729
H         -0.01039       -2.08431        0.10841
