43

C          0.99686       -0.07354       -0.23148
O          0.55258       -0.20398       -1.58594
C          0.50018        0.96028       -2.26829
O          0.84522        2.06154       -1.88109
C          0.10400        0.69874       -3.66198
C          1.06560        0.90881       -4.65434
C          2.51037        1.26940       -4.34609
F          3.38434        0.36345       -4.88242
F          2.87169        2.47746       -4.86625
N          0.76298        0.74196       -5.97344
C         -0.48762        0.33487       -6.35241
C         -0.69616        0.15376       -7.85388
F         -0.80225        1.34987       -8.50294
F          0.34745       -0.49609       -8.44970
F         -1.79531       -0.55945       -8.22268
C         -1.48777        0.10999       -5.39861
C         -2.78027       -0.42029       -5.84529
N         -3.09038       -1.66990       -5.73357
C         -4.40682       -1.88807       -6.37509
C         -5.22342       -0.60698       -6.31591
S         -3.95798        0.65817       -6.54935
C         -1.20498        0.28069       -4.01513
C         -2.24765       -0.01052       -2.94218
C         -2.96554        1.21252       -2.32867
C         -3.94225        1.86654       -3.30225
C         -3.74026        0.77745       -1.07830
H          0.68374       -0.96685        0.31587
H          0.55351        0.79940        0.25914
H          2.08896       -0.01243       -0.20861
H          2.73674        1.29771       -3.28050
H         -4.93479       -2.69944       -5.86388
H         -4.24652       -2.20579       -7.41341
H         -6.00333       -0.56685       -7.07968
H         -5.67674       -0.48271       -5.32718
H         -2.99618       -0.71807       -3.31396
H         -1.75944       -0.57340       -2.13786
H         -2.23178        1.96888       -2.02681
H         -4.67671        1.14027       -3.66462
H         -4.49937        2.67755       -2.82139
H         -3.41194        2.30290       -4.15224
H         -3.05146        0.49270       -0.27675
H         -4.37339        1.58820       -0.70134
H         -4.38787       -0.08080       -1.29110
