17

N          0.93315       -0.01755        0.22970
C          0.71750       -0.46003       -1.15510
C          1.19312       -1.90182       -1.32971
O          0.41799       -2.85476       -1.24036
N          2.51562       -2.14947       -1.55425
C          3.64674       -1.22863       -1.50455
C          4.39227       -1.23861       -0.17609
O          5.50822       -0.77376        0.01486
O          3.67868       -1.72369        0.85918
H          0.32533       -0.58033        0.82987
H          1.87698       -0.27438        0.52136
H         -0.35155       -0.41838       -1.39139
H          1.22239        0.20214       -1.86263
H          2.72499       -3.14072       -1.55470
H          4.34134       -1.54874       -2.28629
H          3.31931       -0.20598       -1.69926
H          4.27868       -1.64078        1.63155
