28

C          1.37991       -0.13015        0.13410
C          0.74932       -1.39903        0.60685
C          1.27726       -2.62048        0.45242
N          0.60446       -3.77153        0.82299
C          1.15780       -5.08217        0.46780
C          1.90046       -5.78097        1.58748
C          1.20548       -6.33015        2.67648
C          1.87584       -7.04301        3.67203
C          3.25266       -7.22523        3.58997
C          3.95985       -6.68499        2.51773
C          3.29031       -5.96283        1.52455
C         -0.65724       -3.71562        1.40230
O         -1.36864       -4.69306        1.62828
N         -1.11965       -2.46314        1.69751
C         -0.57403       -1.28966        1.26672
O         -1.14909       -0.21830        1.39700
H          1.38579        0.62597        0.92566
H          0.82180        0.26982       -0.71997
H          2.41553       -0.28426       -0.18525
H          2.24396       -2.75280       -0.02623
H          0.34355       -5.73570        0.12984
H          1.81770       -4.96407       -0.40201
H          0.12503       -6.23043        2.75096
H          1.31626       -7.46659        4.50224
H          3.77110       -7.79421        4.35718
H          5.03403       -6.83765        2.44980
H          3.86349       -5.56636        0.68990
H         -2.04171       -2.41197        2.09965
