44

C          0.80191       -0.12361        0.00503
C          0.66034        0.72737        1.25906
N          1.13771        2.10064        1.07235
C          0.15819        3.18699        0.94769
C          0.01711        4.03617        2.20353
C          2.49214        2.37405        1.08434
C          3.33998        1.93277        0.06155
C          4.71469        2.22068        0.05964
C          5.28424        2.98203        1.08539
C          6.70652        3.35125        1.14919
C          7.59828        2.90668        0.11974
N          8.29202        2.50421       -0.71724
C          7.14599        4.08679        2.19101
C          8.50865        4.49693        2.26662
N          9.10225        5.30275        1.41048
C         10.43797        5.45733        1.73287
C         11.36768        6.24273        1.02460
C         12.70006        6.28662        1.44458
C         13.10847        5.57396        2.56777
C         12.19997        4.80060        3.29726
C         10.86849        4.74948        2.85428
S          9.54115        3.87205        3.50421
C          6.23851        4.55758        3.26271
O          6.62198        5.24571        4.20232
O          4.91064        4.18015        3.16952
C          4.43861        3.41063        2.09736
C          3.07685        3.10872        2.11455
H          0.52855        0.43118       -0.89835
H          0.16281       -1.00982        0.07119
H          1.82911       -0.48473       -0.10966
H         -0.40058        0.74470        1.53763
H          1.18241        0.25056        2.09724
H          0.41507        3.82651        0.09500
H         -0.82652        2.76215        0.71746
H          0.83309        4.76241        2.28121
H         -0.90992        4.61723        2.16859
H          0.00638        3.42659        3.11276
H          2.93288        1.37631       -0.77874
H          5.30839        1.84169       -0.77084
H         11.04166        6.79767        0.15062
H         13.41901        6.87948        0.88441
H         14.14931        5.61497        2.88183
H         12.51962        4.24673        4.17470
H          2.48493        3.44257        2.95980
