36

O          1.11791       -0.31182       -0.43212
C          2.33353       -0.27534       -0.32657
N          3.02467       -1.14982        0.45399
C          4.47053       -1.18138        0.59234
N          4.83764       -0.70767        1.94089
C          5.26167        0.69607        2.00507
C          4.11996        1.69519        2.27449
N          3.29275        1.39266        3.44173
C          3.67940        1.93717        4.76005
N          4.83391        1.20265        5.26488
C          6.13056        1.58306        5.37487
O          6.98706        0.82564        5.81022
C          3.59356        3.52332        5.01697
Cl         1.95825        4.13773        4.56050
Cl         3.82219        3.87210        6.77629
Cl         4.79936        4.51229        4.12529
C          2.87164       -0.02000        3.43341
C          3.97297       -1.05775        3.07513
C          5.13548       -2.56601        0.15525
Cl         4.75060       -2.91132       -1.57411
Cl         6.92704       -2.49002        0.30211
Cl         4.53354       -3.94773        1.13120
H          2.95876        0.47593       -0.83581
H          2.46225       -1.86632        0.89695
H          4.86038       -0.45775       -0.13704
H          6.00965        0.78270        2.79951
H          5.79707        0.99244        1.09473
H          3.45676        1.69769        1.40022
H          4.52547        2.70489        2.29891
H          2.88461        1.57444        5.42999
H          4.67623        0.26130        5.59878
H          6.36427        2.60026        5.04645
H          2.06064       -0.10643        2.70047
H          2.41073       -0.30288        4.38819
H          3.50537       -2.03903        2.94484
H          4.62636       -1.18139        3.94659
