25

N          1.09251        0.20245        0.06902
C          0.32031       -0.69741        0.86165
C         -0.64284       -1.55543        0.26792
C         -1.02454       -1.51684       -1.09820
C         -1.99525       -2.38023       -1.60612
C         -2.59937       -3.29918       -0.76261
C         -2.22273       -3.35159        0.58007
C         -1.25740       -2.50512        1.10896
N         -0.94726       -2.64795        2.40514
C          0.00092       -1.87397        2.94813
C          0.31978       -2.06995        4.28396
C          1.30121       -1.30798        4.91374
Cl         1.66664       -1.58308        6.57242
C          1.98552       -0.32664        4.21145
C          1.67737       -0.11490        2.86931
C          0.68481       -0.88418        2.21803
H          0.58675        0.54543       -0.74086
H          1.95233       -0.25503       -0.23130
H         -0.57114       -0.80979       -1.78612
H         -2.27747       -2.33164       -2.65471
H         -3.35872       -3.97842       -1.14081
H         -2.69482       -4.08058        1.23570
H         -0.21225       -2.83725        4.84091
H          2.74796        0.27680        4.69583
H          2.20435        0.66725        2.32598
