23

C          1.00700        0.08354        0.12969
C          0.71609       -1.22658       -0.57842
O          1.22692       -2.33958        0.17270
C          2.55059       -2.60762        0.00748
O          3.31017       -1.96927       -0.71174
C          2.95269       -3.86212        0.71122
C          2.43474       -4.01287        2.10396
O          2.03007       -5.07700        2.55739
O          2.57911       -2.86613        2.82187
C          2.23423       -2.95257        4.21381
C          0.73593       -2.81422        4.40987
H          0.62315        0.06165        1.15455
H          0.54719        0.92062       -0.40367
H          2.08401        0.26628        0.19596
H         -0.36699       -1.36722       -0.65711
H          1.11414       -1.22873       -1.59998
H          2.60031       -4.70496        0.10703
H          4.04586       -3.90800        0.76064
H          2.61327       -3.88267        4.65343
H          2.74702       -2.12778        4.71957
H          0.19769       -3.64331        3.94013
H          0.48600       -2.79985        5.47473
H          0.36973       -1.89252        3.94670
