26

C          1.50423        0.07080       -0.24752
C          0.77408        0.77205       -1.39858
C          1.15411        0.08273       -2.71507
C         -0.75756        0.78324       -1.19121
N         -1.09859        1.49714        0.04295
C         -1.41440        0.92794        1.14460
O         -1.43783       -0.40585        1.34270
C         -1.81419        1.68198        2.40859
N         -1.28467        3.05017        2.42396
C         -1.46628        1.50148       -2.34373
O         -2.30059        0.99851       -3.08222
O         -1.09072        2.78444       -2.52010
H          1.16646       -0.96494       -0.13564
H          1.34598        0.58945        0.70280
H          2.58461        0.05456       -0.42682
H          1.14188        1.80566       -1.44142
H          0.77688       -0.94519       -2.74681
H          0.75163        0.62010       -3.57938
H          2.24240        0.04682       -2.83420
H         -1.14806       -0.24039       -1.20571
H         -1.12547       -0.90084        0.57562
H         -2.90633        1.70824        2.46405
H         -1.42825        1.13839        3.27741
H         -1.36332        3.43582        3.36143
H         -0.29354        3.02636        2.18689
H         -1.67109        3.10843       -3.23767
