18

I         -1.77337        0.40285        0.07790
C          0.10995       -0.55233        0.04163
C          0.07806       -1.95327        0.03161
C          1.26417       -2.67624        0.00104
C          2.48328       -2.00380       -0.02321
C          2.53841       -0.60077       -0.01459
C          3.78561        0.04574       -0.04364
C          3.87656        1.43587       -0.03387
C          2.71930        2.19942        0.00831
C          1.47084        1.57214        0.03603
C          1.34092        0.15959        0.02222
H         -0.86559       -2.49315        0.04653
H          1.24124       -3.76289       -0.00586
H          3.40035       -2.58955       -0.04919
H          4.70546       -0.53490       -0.07551
H          4.84973        1.91876       -0.05847
H          2.78115        3.28459        0.01910
H          0.59454        2.21387        0.06954
