39

C          0.99783       -0.03646       -0.14432
C          0.60942        0.42580        1.24612
O          1.13594        1.74120        1.48504
C          2.39265        1.77649        2.00933
O          3.06152        0.79385        2.30136
C          2.82188        3.19212        2.31531
C          2.49953        4.23874        1.23072
O          1.06732        4.40442        1.16921
C          3.03610        5.62877        1.61925
C          4.52200        5.81593        1.45425
O          5.03147        6.62519        0.69259
O          5.20053        4.99992        2.29850
C          6.63373        5.07637        2.27215
C          7.19858        4.41635        1.02751
C          3.05294        3.81469       -0.14838
O          3.61013        2.74862       -0.37128
O          2.78988        4.76321       -1.08990
C          3.16768        4.44449       -2.43819
C          4.66021        4.61807       -2.65478
H          0.65551        0.68266       -0.89562
H          0.56086       -1.01430       -0.36435
H          2.08559       -0.10750       -0.24405
H         -0.48020        0.49813        1.32344
H          0.93719       -0.28611        2.01277
H          2.34974        3.46648        3.26592
H          3.90043        3.12377        2.47793
H          0.67676        3.53017        0.96944
H          2.54925        6.39668        1.00118
H          2.75953        5.88684        2.64920
H          6.96344        6.11602        2.37284
H          6.98681        4.53526        3.15675
H          6.96262        4.99788        0.13120
H          8.28634        4.32880        1.09866
H          6.76722        3.42041        0.88475
H          2.83711        3.43253       -2.69909
H          2.62469        5.13755       -3.08972
H          5.23525        3.91149       -2.04875
H          4.91719        4.45530       -3.70571
H          4.97999        5.62311       -2.36262
