13

N          0.78854       -0.05001       -0.07642
C          0.26259        0.49011       -1.22014
C          0.65334        0.11788       -2.44389
C         -0.01599        0.80297       -3.55926
N         -0.92113        1.71390       -3.45176
C         -1.30681        2.07171       -2.18601
O         -2.16527        2.92111       -1.96542
N         -0.69735        1.44854       -1.12367
H          0.77857        0.59165        0.71082
H          1.69678       -0.48962       -0.20006
H          1.39759       -0.63540       -2.65228
H          0.30879        0.49001       -4.56521
H         -1.04663        1.72705       -0.22000
