23

Cl         1.43440        1.46081        0.45838
C         -0.07072        0.63689        0.26236
C         -1.24446        1.38163        0.40955
C         -2.49433        0.77101        0.26226
C         -2.57375       -0.59163       -0.03531
O         -3.73669       -1.31487       -0.20759
C         -4.94240       -0.65540       -0.10694
C         -5.53301       -0.10497       -1.25762
Cl        -4.71177       -0.21303       -2.78078
C         -6.78080        0.52211       -1.15337
Cl        -7.57213        1.24814       -2.50782
C         -7.43848        0.57976        0.07827
C         -6.86173        0.00392        1.21334
Cl        -7.75026        0.10839        2.69232
C         -5.61418       -0.62623        1.12736
Cl        -4.88957       -1.36825        2.51673
C         -1.39870       -1.33594       -0.18082
C         -0.14883       -0.72716       -0.03339
Cl         1.25516       -1.71481       -0.22911
H         -1.19281        2.44363        0.64023
H         -3.37945        1.38693        0.38615
H         -8.40896        1.06779        0.15195
H         -1.46316       -2.39720       -0.41130
