23

Cl         2.79522        1.33881        0.90721
C          1.18820        0.94177        0.40518
C          0.28718        1.99878        0.27041
C         -1.02710        1.77127       -0.15316
O         -1.74861        2.93505       -0.32406
C         -3.07269        2.99277        0.04745
C         -3.50209        2.56061        1.30252
C         -4.85844        2.63182        1.63229
Cl        -5.31508        2.04378        3.19470
C         -5.79083        3.15863        0.72185
Cl        -7.47587        3.22272        1.14676
C         -5.34910        3.63498       -0.52689
Cl        -6.48220        4.31141       -1.66185
C         -3.98536        3.56099       -0.85788
Cl        -3.39012        4.13861       -2.38552
C         -1.43707        0.46646       -0.48007
Cl        -3.01038        0.16776       -1.15826
C         -0.53355       -0.60792       -0.31425
Cl        -1.04465       -2.23795       -0.66617
C          0.78385       -0.36940        0.12525
Cl         1.91440       -1.67889        0.30079
H          0.61359        3.01789        0.47508
H         -2.79123        2.16337        2.02302
