35

N          1.06658        0.01783       -0.07245
C          2.32755        0.01783       -0.07245
C          3.84755        0.01783       -0.07245
C          4.43320       -0.05963        1.34684
C          4.84286       -1.26203        1.95835
C          5.26332       -1.30553        3.29102
C          5.32428       -0.13454        4.03095
Cl         5.82934       -0.18937        5.67336
C          4.97584        1.07777        3.44287
C          4.52688        1.11497        2.11492
C          4.24925       -1.16934       -0.99914
C          3.63842       -2.45486       -0.92302
Cl         2.45688       -2.93322        0.26357
C          3.98636       -3.49148       -1.79558
C          4.98586       -3.33321       -2.75258
N          5.34763       -4.44921       -3.57265
N          4.32341       -5.36913       -3.73920
C          4.56530       -6.43660       -4.42539
C          5.90383       -6.74022       -5.01123
O          6.08866       -7.79957       -5.58273
N          6.83609       -5.76794       -4.82509
C          6.63830       -4.62806       -4.09141
O          7.60094       -3.88538       -3.90163
C          5.59521       -2.07884       -2.84782
C          5.22644       -1.01356       -1.99973
Cl         6.02357        0.49751       -2.27656
H          4.15391        0.96916       -0.51905
H          4.83796       -2.21115        1.43271
H          5.53045       -2.26011        3.73870
H          5.03788        1.99776        4.01817
H          4.24282        2.07756        1.69269
H          3.49591       -4.45782       -1.68061
H          3.78630       -7.19297       -4.60896
H          7.77346       -5.94097       -5.15186
H          6.34323       -1.89374       -3.61646
