56

C          0.92780       -0.09244        0.03364
C          0.39441        1.29072        0.37452
C          0.80704        2.38981       -0.62686
C          0.26370        2.11254       -2.03069
N          0.39760        3.71912       -0.17941
N         -0.17713        3.94581        1.05281
C         -0.12240        5.22981        1.18939
N          0.44323        5.90569        0.16693
C          0.74060        7.27817        0.12266
C          0.89208        7.95954       -1.09221
C          1.20423        9.32832       -1.11459
C          1.41788       10.02564        0.07445
N          1.79315       11.35911        0.15467
C          1.21691       12.34164       -0.78757
C          1.46591       13.77487       -0.23588
N          2.91130       13.95224       -0.01709
C          3.53162       15.17190       -0.16993
C          2.93839       16.38902        0.17733
C          3.59805       17.59983       -0.06170
C          4.84792       17.59771       -0.66821
O          5.44467       18.79713       -0.91744
C          5.46357       16.40495       -1.01686
C          4.80777       15.20354       -0.75439
C          3.52355       12.96235        0.88896
C          3.25402       11.54350        0.34643
C          1.27775        9.33234        1.28152
C          0.92042        7.98756        1.31234
C          0.82749        4.93935       -0.73816
O          1.48869        5.07173       -1.76609
H          0.48804       -0.47872       -0.88978
H          0.67784       -0.79570        0.83490
H          2.01652       -0.07697       -0.07546
H         -0.69921        1.24580        0.45302
H          0.76786        1.55141        1.37339
H          1.90272        2.41793       -0.68834
H         -0.83059        2.07301       -2.02677
H          0.56038        2.89424       -2.73703
H          0.64443        1.16741       -2.42799
H         -0.51098        5.77740        2.05720
H          0.74778        7.44667       -2.04115
H          1.30964        9.82433       -2.07554
H          1.68818       12.24519       -1.77483
H          0.13863       12.18399       -0.90241
H          0.92437       13.91000        0.70928
H          1.08026       14.50175       -0.95968
H          1.96284       16.40967        0.65465
H          3.13239       18.54040        0.21701
H          6.28129       18.62956       -1.38185
H          6.43318       16.38103       -1.50131
H          5.27662       14.27026       -1.05746
H          3.07945       13.06254        1.88856
H          4.60462       13.10477        0.99773
H          3.66767       10.81165        1.05041
H          3.77200       11.41330       -0.61402
H          1.45034        9.85898        2.21758
H          0.85592        7.50839        2.28406
