24

O          1.53175        2.19568        0.07556
C          1.13849        1.04781       -0.00932
C         -0.27179        0.66156       -0.02534
C         -1.41657        1.42974        0.05901
C         -2.64166        0.75378        0.04701
C         -2.69197       -0.65311       -0.04529
C         -1.51894       -1.40679       -0.14561
C         -0.32369       -0.71538       -0.13990
C          1.04882       -1.20390       -0.24447
O          1.33561       -2.36830       -0.43916
N          1.85987       -0.10995       -0.11038
C          3.30564       -0.16253       -0.15368
C          3.94163       -0.51574        1.16054
C          3.20685       -0.97450        2.40280
O          3.82041       -1.90674        1.50889
H         -1.36480        2.51123        0.13217
H         -3.57034        1.31839        0.11295
H         -3.65699       -1.15718       -0.04094
H         -1.53986       -2.48933       -0.22035
H          3.60978       -0.88797       -0.91623
H          3.67746        0.82158       -0.46179
H          4.92865       -0.08340        1.26522
H          3.68291       -0.83183        3.36529
H          2.12655       -0.95217        2.44031
