14

S          1.55807       -0.71518       -0.84064
C          2.93664       -0.21119       -0.21980
N          3.94777        0.14000        0.26638
C          4.60516        1.10807       -0.51391
C          5.58593        0.72591       -1.43827
C          6.26081        1.68605       -2.19517
C          5.97074        3.03865       -2.02296
C          5.01370        3.43297       -1.08925
C          4.33995        2.47198       -0.33255
H          5.82809       -0.32601       -1.56733
H          7.01654        1.37860       -2.91355
H          6.49796        3.78676       -2.61006
H          4.79624        4.48825       -0.94504
H          3.60639        2.78840        0.40475
