24

O          1.03311        0.25896        0.47518
C          2.21931        0.09752        0.23347
O          3.02883       -0.61313        1.04963
C          2.92030        0.64960       -0.98779
C          2.60066       -0.08959       -2.29495
C          2.97067       -1.57975       -2.23364
C          2.67343       -2.28806       -3.55491
C          1.22255       -2.09298       -3.98474
C          0.85485       -0.61423       -4.05585
C          1.13952        0.09713       -2.73419
H          3.95489       -0.67246        0.75049
H          2.64529        1.70846       -1.06867
H          4.00390        0.64494       -0.81886
H          3.22956        0.37113       -3.07053
H          4.03539       -1.69066       -1.99640
H          2.41071       -2.07869       -1.43341
H          2.88717       -3.35822       -3.45519
H          3.34020       -1.90066       -4.33513
H          0.55952       -2.60012       -3.27288
H          1.06022       -2.56123       -4.96200
H         -0.20632       -0.50984       -4.30873
H          1.42405       -0.13333       -4.86087
H          0.45664       -0.29711       -1.97316
H          0.91591        1.16492       -2.84359
