21

N          2.28390        0.05188       -0.17070
C          0.89782        0.05376       -0.00045
C          0.18353       -1.13940       -0.04309
C         -1.21433       -1.13361       -0.01084
C         -1.94229        0.07081        0.02146
C         -3.42019       -0.09778        0.04520
O         -3.99523       -1.17196        0.07937
O         -4.11841        1.03672        0.01548
C         -1.22229        1.27227        0.00897
S         -2.01411        2.85203        0.03433
O         -2.67812        3.06351       -1.23331
O         -2.67140        3.02134        1.31172
O         -0.81692        3.93873        0.04920
C          0.18706        1.25407       -0.02501
H          2.74393       -0.79718        0.14482
H          2.75335        0.88749        0.16551
H          0.70562       -2.09160       -0.10281
H         -1.73558       -2.09111       -0.02633
H         -5.05972        0.76280        0.03214
H         -1.22959        4.82700        0.01289
H          0.74659        2.18574       -0.07154
