22

Br         0.95643        0.06929       -0.06005
C          2.84991       -0.09150        0.06339
C          3.57627        1.09199       -0.08758
C          4.96823        1.07449       -0.02703
C          5.66643       -0.12376        0.20179
C          7.15184       -0.07872        0.23951
C          7.84014        0.27645        1.42736
Br         6.80838        0.69982        2.99835
C          9.25141        0.31139        1.46622
Br        10.15305        0.83845        3.08017
C          9.99477       -0.03384        0.31701
Br        11.91760       -0.01327        0.37275
C          9.32743       -0.39178       -0.87379
Br        10.33169       -0.88192       -2.43784
C          7.91619       -0.39595       -0.91337
Br         6.98649       -0.81966       -2.54804
C          4.92363       -1.31967        0.37505
Br         5.87942       -2.94648        0.73425
C          3.51328       -1.30819        0.29268
Br         2.50618       -2.92537        0.47580
H          3.06665        2.03822       -0.25776
H          5.50886        2.01154       -0.15548
