20

C          1.68496        0.26051        0.43405
C          1.04085        1.63435        0.55670
C          1.12233        2.45031       -0.73450
C          0.23161        1.93434       -1.86246
O         -1.15122        2.22786       -1.58125
C         -2.12946        1.29936       -1.47978
C         -1.73423       -0.09805       -1.10749
O         -3.30743        1.61278       -1.61466
H          1.21530       -0.34516       -0.34533
H          1.59329       -0.28390        1.37917
H          2.75042        0.35063        0.19885
H         -0.00032        1.53392        0.87945
H          1.56038        2.18469        1.35027
H          0.83117        3.48169       -0.50021
H          2.16269        2.47643       -1.07955
H          0.47274        2.49415       -2.77343
H          0.41340        0.88366       -2.09093
H         -1.31632       -0.11205       -0.09964
H         -2.63291       -0.72424       -1.09906
H         -1.05158       -0.53888       -1.83368
