25

O          1.07389        0.35565       -0.34438
C          2.27440        0.23002       -0.17394
N          3.19711        1.28280       -0.12863
C          4.47375        0.75916        0.01993
C          5.67793        1.42429        0.05341
C          6.82691        0.63793        0.16570
C          6.73742       -0.76821        0.24584
C          5.49643       -1.41973        0.21864
C          4.37182       -0.63109        0.10181
N          3.00857       -0.96174        0.00518
C          2.45785       -2.29620       -0.04330
C          1.79627       -2.73855        1.26663
C          0.40757       -2.16272        1.53004
Cl        -0.78004       -2.70347        0.31862
H          2.94277        2.24910       -0.24777
H          5.73886        2.50334       -0.01759
H          7.80531        1.11416        0.18362
H          7.65117       -1.35483        0.32226
H          5.44391       -2.49981        0.27341
H          1.74954       -2.33900       -0.87666
H          3.26209       -3.00036       -0.28320
H          1.71435       -3.83324        1.25722
H          2.44815       -2.48344        2.11109
H          0.04218       -2.51617        2.49922
H          0.40713       -1.07185        1.56256
