34

C          0.86001        0.26571        0.12902
O          0.51893        0.86604        1.38245
C          0.99205        0.18393        2.47460
O          1.63896       -0.84734        2.37106
C          0.55622        0.86605        3.77032
S          1.33837       -0.05806        5.10225
O          0.74254       -1.38035        5.18067
O          2.77893        0.09839        4.98794
C          0.90063        0.72773        6.64948
C          1.84574        1.51190        7.32072
C          1.53663        2.04375        8.57358
C          0.29425        1.78827        9.15506
C         -0.63759        0.98737        8.49466
C         -0.33002        0.43955        7.24895
C          0.94790        2.35321        3.77042
C         -0.14914        3.07484        4.53845
C         -1.40942        2.24756        4.34882
C         -0.98018        0.86351        3.86446
H          0.43166        0.87839       -0.66869
H          0.43524       -0.74079        0.05806
H          1.94675        0.23894        0.00070
H          2.83040        1.69283        6.89469
H          2.27280        2.64022        9.10770
H          0.06130        2.19372       10.13711
H         -1.59410        0.76872        8.96381
H         -1.04490       -0.22657        6.77287
H          1.93134        2.54561        4.21075
H          0.98095        2.76768        2.75580
H         -0.28486        4.09978        4.17684
H          0.10144        3.15136        5.59977
H         -2.06573        2.71623        3.60666
H         -1.97974        2.18509        5.28181
H         -1.45245        0.68008        2.89132
H         -1.37132        0.08191        4.52140
