47

C          1.20580        0.34722        2.16589
C          0.05779       -0.04681        1.33222
O         -0.87019        0.94032        1.20936
N         -2.01980        0.43621        0.65892
C         -1.78240       -0.86535        0.45184
C         -2.89958       -1.75918        0.15669
C         -3.44370       -2.55511        1.18636
Cl        -2.81215       -2.54633        2.80386
C         -4.54800       -3.38089        0.94962
C         -5.13635       -3.41494       -0.31078
C         -4.61281       -2.63100       -1.33833
C         -3.49802       -1.81062       -1.11082
Cl        -2.90533       -0.88982       -2.45100
C         -0.39845       -1.18974        0.70234
C          0.19602       -2.49357        0.49104
O         -0.51202       -3.49566        0.36935
N          1.53821       -2.72250        0.34865
C          2.75914       -1.89509        0.23866
C          3.68675       -2.38033       -0.92623
O          4.42951       -3.31502       -1.12761
N          3.44522       -1.25010       -1.65524
C          2.78831       -0.56234       -0.54228
S          4.08018        0.62313        0.03768
C          4.73730        0.81913       -1.68439
C          3.91948        1.95557       -2.31561
C          6.21562        1.21030       -1.60991
C          4.54581       -0.57014       -2.34120
C          4.32642       -0.47281       -3.84774
O          5.12871       -0.01720       -4.64935
O          3.10985       -0.87394       -4.26789
H          1.75448        1.16592        1.69542
H          0.84979        0.71451        3.13439
H          1.87952       -0.48497        2.36825
H         -4.95672       -3.99248        1.75108
H         -6.00162       -4.04905       -0.48971
H         -5.08221       -2.66128       -2.31940
H          1.66886       -3.71933        0.18147
H          3.28645       -1.89065        1.20011
H          1.83892       -0.11549       -0.84165
H          3.98770        2.87580       -1.72149
H          4.28875        2.20407       -3.31589
H          2.85853        1.69750       -2.41044
H          6.81824        0.43899       -1.11596
H          6.62885        1.35177       -2.61501
H          6.36127        2.14969       -1.06375
H          5.44459       -1.18758       -2.20716
H          3.11962       -0.74107       -5.23871
