12

O          0.94001       -0.02876        0.09046
C          0.47155        1.06220        0.87034
C          1.01157        0.97251        2.29216
C          2.53204        0.93899        2.38482
Cl         3.26819        2.43484        1.76295
H          1.75099        0.26450       -0.36181
H          0.74369        2.00147        0.37849
H         -0.62173        1.00921        0.89134
H          0.61701        1.80691        2.88378
H          0.63462        0.04885        2.74881
H          2.84221        0.83434        3.42893
H          2.95209        0.09969        1.82278
