58

O          2.24634        0.52419       -1.72689
C          1.57502        0.21041       -0.75194
O          0.76053        1.12207       -0.10701
C         -0.54260        0.64925        0.05573
C         -1.57138        1.58843        0.05716
C         -2.89010        1.14676        0.13001
C         -3.16352       -0.22038        0.21310
C         -2.11770       -1.14947        0.24643
C         -0.79050       -0.71775        0.17096
C          0.36923       -1.61359        0.22643
O          0.09502       -2.87641        0.70075
C          1.58082       -1.15627       -0.15579
C          2.89307       -1.92781       -0.11066
C          3.82875       -1.44961        1.03253
C          5.07802       -0.65186        0.59605
C          4.77061        0.80038        0.25153
C          5.08140        1.36644       -0.99029
C          4.62140        2.64021       -1.33378
C          3.84698        3.39410       -0.44426
C          3.16876        4.61152       -0.90496
C          2.25946        4.53308       -1.97744
C          1.59255        5.66634       -2.44489
C          1.82778        6.89566       -1.83829
Br         0.93300        8.43604       -2.47022
C          2.71703        6.99795       -0.76920
C          3.38256        5.85863       -0.30298
C          3.65290        2.89048        0.84670
C          4.11750        1.61548        1.19250
C          5.82568       -1.48325       -0.46681
C          4.95292       -1.91780       -1.62123
C          5.54067       -2.14029       -2.87708
C          4.77022       -2.55697       -3.96192
C          3.40884       -2.78307       -3.79932
C          2.81787       -2.58839       -2.55265
C          3.57388       -2.13677       -1.45334
H         -1.34683        2.64819       -0.02273
H         -3.70558        1.86534        0.11055
H         -4.19399       -0.56518        0.25427
H         -2.34826       -2.20949        0.32124
H          0.85294       -3.46599        0.57198
H          2.64768       -2.95577        0.18783
H          4.20489       -2.35456        1.53531
H          3.25840       -0.92681        1.80973
H          5.75250       -0.59401        1.46342
H          5.60655        0.80954       -1.76007
H          4.80830        3.00641       -2.34139
H          2.06178        3.56944       -2.44861
H          0.89848        5.57281       -3.27539
H          2.90215        7.95731       -0.29418
H          4.07971        5.95141        0.52670
H          3.07116        3.45485        1.57191
H          3.90616        1.24440        2.19283
H          6.70370       -0.93450       -0.82898
H          6.20995       -2.39873        0.00368
H          6.60576       -1.97371       -3.02161
H          5.23166       -2.70129       -4.93483
H          2.80268       -3.10152       -4.64300
H          1.74955       -2.76877       -2.45430
