98

C          1.06581        0.44896       -0.24517
C          0.87097       -0.86845       -0.97956
C          1.31477       -2.07577       -0.15026
C          0.56304       -2.23468        1.17511
C         -0.95255       -2.38075        1.00661
C         -1.35411       -3.63860        0.23017
C         -0.92150       -4.93219        0.92659
C         -1.53285       -5.08288        2.32330
C         -3.06222       -5.16869        2.28668
C         -3.55681       -6.38942        1.50564
C         -3.03265       -7.70194        2.09682
C         -3.49788       -7.91317        3.54228
C         -5.02132       -7.99012        3.66114
C         -5.60308       -9.10137        2.79287
C         -5.16839      -10.48270        3.28733
C         -5.85872      -10.90477        4.59297
C         -7.35640      -10.56746        4.71695
C         -8.25293      -11.17045        3.65245
O         -9.43368      -11.43758        3.83016
O         -7.56767      -11.38382        2.50786
C         -7.95194      -12.42978        1.61170
C         -7.29608      -13.73673        2.07040
C         -7.82805      -14.25802        3.40803
C         -9.33329      -14.52264        3.37645
C         -9.68508      -15.79393        2.60946
C         -9.25008      -17.06356        3.34278
C         -9.82324      -17.17003        4.76114
C        -11.35514      -17.10875        4.80206
C        -12.02476      -18.22476        3.99405
C        -11.60948      -19.62887        4.44280
C        -11.99026      -19.94244        5.89277
C        -13.50128      -19.97767        6.14140
C        -14.25636      -21.00097        5.28956
C        -13.77217      -22.42555        5.51236
H          0.44234        0.50817        0.65228
H          0.78997        1.28711       -0.89099
H          2.11120        0.57337        0.05388
H         -0.17853       -0.97005       -1.27794
H          1.45058       -0.84844       -1.90906
H          1.19998       -2.98287       -0.75569
H          2.38699       -1.99392        0.06281
H          0.97115       -3.09971        1.71042
H          0.76728       -1.37881        1.82703
H         -1.42022       -2.38017        1.99743
H         -1.36934       -1.50228        0.50387
H         -2.43990       -3.63291        0.08212
H         -0.93185       -3.61715       -0.77979
H         -1.19096       -5.78483        0.29359
H          0.16932       -4.97996        1.00559
H         -1.10626       -5.96846        2.80596
H         -1.23469       -4.25376        2.97211
H         -3.44440       -5.18992        3.31300
H         -3.49370       -4.26237        1.84990
H         -4.65205       -6.38205        1.48271
H         -3.25800       -6.32317        0.45423
H         -3.34111       -8.53425        1.45624
H         -1.93952       -7.73780        2.06381
H         -3.03354       -8.82210        3.93671
H         -3.13144       -7.11265        4.19257
H         -5.29672       -8.14028        4.71067
H         -5.47827       -7.03626        3.37508
H         -6.69159       -8.99737        2.76816
H         -5.31307       -8.98573        1.74407
H         -5.34580      -11.22038        2.49885
H         -4.08425      -10.53903        3.42676
H         -5.71051      -11.98338        4.72393
H         -5.33524      -10.42473        5.42971
H         -7.69650      -10.96157        5.68238
H         -7.51967       -9.48579        4.73715
H         -9.03596      -12.48285        1.49339
H         -7.54099      -12.16430        0.63169
H         -7.41559      -14.49996        1.29492
H         -6.21663      -13.57534        2.18876
H         -7.27579      -15.16208        3.68536
H         -7.60321      -13.54835        4.20941
H         -9.71069      -14.55657        4.40285
H         -9.87972      -13.69538        2.92018
H        -10.76693      -15.81131        2.43586
H         -9.23342      -15.77798        1.61176
H         -9.54815      -17.93222        2.74570
H         -8.15744      -17.11370        3.39761
H         -9.46372      -18.09633        5.22083
H         -9.41727      -16.37580        5.39741
H        -11.68581      -17.14441        5.84561
H        -11.70883      -16.14067        4.42855
H        -13.11212      -18.10921        4.05757
H        -11.78595      -18.10979        2.93030
H        -12.04954      -20.36507        3.76260
H        -10.52729      -19.75614        4.32769
H        -11.54367      -20.90151        6.17634
H        -11.53903      -19.20890        6.57073
H        -13.67498      -20.19447        7.20210
H        -13.93072      -18.98431        5.96472
H        -15.32230      -20.94466        5.53704
H        -14.17723      -20.74927        4.22609
H        -13.85348      -22.70137        6.56834
H        -14.37435      -23.12587        4.92668
H        -12.73010      -22.55202        5.20312
