35

C          1.42197        0.00306        0.05899
C          0.71669       -1.25937       -0.34818
N          1.39363       -2.39430       -0.07372
C          0.84053       -3.57049       -0.38304
N          1.47333       -4.72733        0.00796
C          2.73027       -4.68972        0.72093
C          0.90171       -6.00030       -0.36669
N         -0.32804       -3.65180       -1.02664
C         -0.98885       -2.50773       -1.30889
O         -2.24052       -2.78481       -1.91149
C         -2.97604       -2.04727       -2.83608
O         -2.65275       -0.94897       -3.27380
N         -4.15878       -2.68198       -3.19643
C         -4.33009       -4.12141       -3.10878
C         -5.13226       -1.93435       -3.96573
C         -0.54831       -1.25470       -0.92170
C         -1.31008        0.01894       -1.08459
H          0.91215        0.46911        0.90745
H          1.46701        0.70687       -0.77785
H          2.45213       -0.21009        0.36517
H          2.67744       -5.33859        1.60280
H          3.53871       -5.05701        0.08014
H          3.01535       -3.69645        1.08301
H         -0.09659       -6.12706        0.06695
H          0.83526       -6.10087       -1.45556
H          1.51766       -6.83071       -0.00228
H         -5.28488       -4.33666       -2.62172
H         -4.34114       -4.52756       -4.12578
H         -3.52385       -4.60781       -2.55614
H         -5.43037       -1.05303       -3.38819
H         -4.68614       -1.60569       -4.90830
H         -6.01778       -2.54508       -4.16422
H         -1.09868        0.46969       -2.05870
H         -2.38450       -0.14101       -0.95747
H         -1.04366        0.75356       -0.31807
