9

C          1.04593        0.01821        0.11048
C          0.59346       -1.40719        0.07814
Cl        -0.40186       -1.90663        1.40664
C          0.89300       -2.29693       -0.87391
Cl         1.86218       -1.96068       -2.24722
H          0.67194        0.55019        0.99177
H          0.68469        0.55781       -0.77128
H          2.13916        0.07549        0.13708
H          0.54952       -3.32401       -0.86928
