20

F         -1.58608        0.58265        0.00605
C         -0.34737        0.04452        0.00136
F         -0.20156       -1.29721       -0.00935
C          0.73006        0.83536        0.00728
F          1.95135        0.25556        0.00216
O          0.60103        2.20744        0.01837
C          1.86275        2.87926        0.02223
F          2.56099        2.47429        1.11285
F          2.55768        2.49284       -1.07720
C          1.65347        4.38291        0.03537
F          0.91743        4.77188       -1.04913
F          0.92092        4.75325        1.12873
C          3.00007        5.09029        0.03927
F          3.72329        4.73413        1.12560
F          3.71960        4.75324       -1.05558
O          2.82411        6.49158        0.05190
C          4.06167        7.14231        0.05486
F          4.77580        6.83397        1.15147
F          4.77010        6.85454       -1.05101
F          3.83168        8.47275        0.06787
