29

C          0.71969        0.08335        0.23822
C          0.55663        0.40853       -1.22345
O         -0.12267       -0.30481       -1.96314
N          1.11506        1.55242       -1.74067
C          1.75270        2.57816       -1.00491
C          3.06570        2.42416       -0.50614
I          4.23724        0.69562       -1.02962
C          3.69619        3.46040        0.22290
N          4.95474        3.18939        0.83129
C          5.17961        3.43061        2.18131
C          6.55406        3.00515        2.62574
O          4.36043        3.89785        2.96450
C          3.06388        4.72132        0.29673
I          4.21157        6.47633        0.81877
C          1.76387        4.89163       -0.21914
C          1.08449        6.18386       -0.06368
O          0.57735        6.60998        0.95645
O          1.09572        6.86762       -1.21896
C          1.10481        3.82199       -0.85357
I         -0.90235        4.04056       -1.56741
H          0.02850       -0.72611        0.49584
H          0.46313        0.94684        0.85672
H          1.72881       -0.25978        0.45945
H          0.56852        1.83962       -2.54903
H          5.44126        2.36964        0.48050
H          7.30694        3.64978        2.16464
H          6.62942        3.09405        3.71350
H          6.73519        1.96276        2.34988
H          0.62103        7.70116       -1.01043
