173

C          1.50304        0.00267       -0.43039
C          0.70538        1.27529       -0.14862
C          1.00042        2.34630       -1.19467
C         -0.80343        0.97615       -0.09049
C         -1.20006        0.07528        1.08571
C         -0.82293        0.66181        2.44999
C         -1.50569        2.00487        2.72441
C         -3.02998        1.87547        2.79280
C         -3.47970        0.93988        3.92016
C         -3.02399        1.43680        5.29551
C         -3.57304        2.83189        5.60252
C         -5.10396        2.84310        5.60295
C         -5.67336        1.95023        6.70682
C         -5.20175        2.40243        8.08942
C         -5.57861        3.86420        8.34846
C         -7.09954        4.10895        8.31652
C         -7.94970        3.04678        9.01908
C         -7.73726        3.01151       10.50304
O         -8.62650        2.64113       11.25164
O         -6.49293        3.43851       10.80562
C         -5.80179        3.49683       12.06959
C         -6.44511        4.43615       13.07667
C         -7.91414        4.20125       13.39585
O         -8.25470        2.97566       14.07421
C         -7.78819        1.72037       13.87762
O         -7.21053        1.26502       12.90484
C         -8.07080        0.88570       15.09672
C         -7.50639        1.50743       16.37721
C         -8.07048        2.89092       16.73530
C         -9.60079        2.90731       16.72538
C        -10.14654        1.98118       17.80704
C         -9.65726        2.41250       19.19211
C        -10.08487        3.84952       19.51336
C        -11.60902        3.99523       19.48230
C        -12.28178        3.02298       20.45636
C        -11.83627        3.27203       21.90057
C        -12.23219        4.66899       22.38402
C        -13.74914        4.87704       22.35508
C        -14.48991        3.92503       23.30001
C        -14.08420        4.10124       24.76843
C        -14.31945        5.52830       25.29475
C        -15.81133        5.85736       25.32372
C        -13.69236        5.70397       26.67403
O         -5.72884        4.65458       14.32187
C         -5.16471        3.63306       15.00695
O         -4.96986        2.50150       14.58873
C         -4.76090        4.07696       16.38619
C         -3.28627        4.43498       16.38873
C         -2.99353        5.67389       15.53879
C         -3.63184        6.95042       16.09787
C         -3.10732        7.31802       17.48934
C         -1.58095        7.44587       17.53049
C         -1.05209        8.49200       16.54337
C         -1.54468        9.90396       16.87072
C         -1.06528       10.38691       18.24279
C          0.46217       10.45522       18.34540
C          1.08099       11.42981       17.33866
C          0.60441       12.87181       17.53954
C          1.01848       13.45982       18.89282
C          2.53773       13.52172       19.09617
C          3.27046       14.35972       18.03252
C          2.87455       15.83315       18.12432
C          4.78216       14.19706       18.17149
H          1.16558       -0.47561       -1.35581
H          1.39410       -0.72181        0.38324
H          2.57035        0.22201       -0.52521
H          1.04378        1.68593        0.80869
H          0.65980        2.04197       -2.18835
H          0.49994        3.28500       -0.93150
H          2.07544        2.54928       -1.24326
H         -1.36643        1.91619       -0.03891
H         -1.12437        0.49557       -1.02285
H         -2.27932       -0.11119        1.03901
H         -0.73864       -0.91180        0.98181
H         -1.07230       -0.06482        3.23052
H          0.26087        0.78568        2.53368
H         -1.11160        2.42199        3.65776
H         -1.23989        2.74285        1.96096
H         -3.46844        2.87189        2.91625
H         -3.43495        1.51556        1.84217
H         -4.56901        0.83397        3.88585
H         -3.10610       -0.07602        3.76151
H         -3.33450        0.71706        6.06032
H         -1.93165        1.45545        5.36484
H         -3.16986        3.17503        6.56085
H         -3.20737        3.56978        4.88206
H         -5.45765        3.87329        5.70929
H         -5.51028        2.52596        4.63857
H         -6.76574        1.96573        6.64105
H         -5.39709        0.90165        6.55470
H         -5.61629        1.73765        8.85549
H         -4.11797        2.28268        8.19497
H         -5.13021        4.18619        9.29198
H         -5.10133        4.53698        7.62964
H         -7.30411        5.09127        8.75849
H         -7.42947        4.16440        7.27318
H         -9.00665        3.27926        8.84680
H         -7.78201        2.03559        8.63705
H         -5.53921        2.49574       12.39573
H         -4.81585        3.92265       11.83359
H         -6.41559        5.42419       12.59504
H         -8.19527        4.98191       14.11678
H         -8.58426        4.39124       12.55787
H         -9.14715        0.69920       15.15084
H         -7.59457       -0.08988       14.94711
H         -7.69221        0.81619       17.20622
H         -6.41936        1.57164       16.30892
H         -7.66563        3.20438       17.70164
H         -7.69685        3.67480       16.07678
H         -9.95685        3.93527       16.85324
H        -10.01359        2.60634       15.75771
H        -11.23983        1.96757       17.75295
H         -9.84665        0.94529       17.61963
H        -10.02600        1.70581       19.94050
H         -8.56940        2.33109       19.27490
H         -9.67874        4.13961       20.48717
H         -9.63875        4.56597       18.81511
H        -11.88004        5.03232       19.70294
H        -11.99836        3.82226       18.47304
H        -13.36775        3.09884       20.35354
H        -12.06521        1.98387       20.18787
H        -12.25807        2.49757       22.54814
H        -10.75235        3.15145       22.00351
H        -11.83195        4.82992       23.38992
H        -11.75283        5.44036       21.77136
H        -13.97412        5.92019       22.59484
H        -14.13994        4.74719       21.34050
H        -15.56807        4.07075       23.18139
H        -14.31312        2.88353       23.00694
H        -14.64515        3.38083       25.37623
H        -13.02909        3.82813       24.89351
H        -13.82209        6.25563       24.64439
H        -16.36296        5.12631       25.92385
H        -15.98540        6.85164       25.74446
H        -16.23724        5.85579       24.31499
H        -12.60713        5.56113       26.62023
H        -13.87215        6.71657       27.05018
H        -14.09839        4.98848       27.39436
H         -5.40483        4.89592       16.72438
H         -4.95162        3.25268       17.08167
H         -2.95094        4.58082       17.42119
H         -2.70371        3.59275       15.99742
H         -1.90856        5.79025       15.45031
H         -3.33817        5.52471       14.51037
H         -3.44947        7.77243       15.39637
H         -4.72194        6.85791       16.13990
H         -3.57892        8.25258       17.81327
H         -3.42478        6.57136       18.22529
H         -1.26752        7.67950       18.55291
H         -1.11040        6.48055       17.31539
H          0.04198        8.45451       16.53239
H         -1.34322        8.24240       15.51757
H         -1.21577       10.58980       16.08283
H         -2.63852        9.94756       16.83762
H         -1.51079       11.36429       18.45356
H         -1.44741        9.73442       19.03473
H          0.73994       10.73110       19.36774
H          0.90127        9.46267       18.19657
H          2.17224       11.37093       17.40705
H          0.84974       11.11777       16.31420
H          0.98313       13.49090       16.72028
H         -0.48522       12.93118       17.44568
H          0.58318       14.45935       18.99419
H          0.57782       12.87403       19.70794
H          2.73917       13.93196       20.09366
H          2.94580       12.50370       19.11112
H          3.01476       13.99819       17.03071
H          3.06741       16.23080       19.12626
H          3.43517       16.43473       17.40270
H          1.81142       15.97294       17.90386
H          5.07044       13.15159       18.01493
H          5.30425       14.79850       17.41977
H          5.12979       14.50442       19.16208
