22

C          1.07576       -0.09329        0.17664
C          0.67433        1.31316       -0.24126
C          1.15413        1.68902       -1.64515
C          0.58489        0.83717       -2.78444
C         -0.94225        0.85056       -2.92499
C         -1.56444        2.22388       -3.16271
C         -1.16791        2.79673       -4.49886
O         -1.97181        3.03905       -5.39401
H          0.59087       -0.85159       -0.44486
H          0.77956       -0.27637        1.21448
H          2.15979       -0.22870        0.10599
H         -0.41249        1.42383       -0.16366
H          1.10920        2.02312        0.47276
H          0.92232        2.74497       -1.82563
H          2.24862        1.61441       -1.67496
H          1.03775        1.17261       -3.72502
H          0.91133       -0.20205       -2.65898
H         -1.21114        0.18908       -3.75856
H         -1.39353        0.40985       -2.02855
H         -2.65662        2.13108       -3.14923
H         -1.29071        2.93987       -2.38287
H         -0.09629        3.02105       -4.63114
