22

Cl        -2.79522        0.25155        0.12709
C         -1.24055       -0.50576        0.06806
C         -1.20910       -1.89675        0.17495
C          0.00896       -2.57647        0.13969
C          1.22175       -1.88325       -0.02207
C          2.48524       -2.65511       -0.06637
C          3.35320       -2.59518        1.03773
C          4.56948       -3.28495        1.04463
Cl         5.56318       -3.10570        2.44969
C          4.94168       -4.07540       -0.04965
Cl         6.45345       -4.93423       -0.02306
C          4.08317       -4.16426       -1.16048
Cl         4.52035       -5.16027       -2.52170
C          2.86479       -3.45031       -1.17124
Cl         1.81537       -3.52564       -2.56136
C          1.17862       -0.47179       -0.13352
Cl         2.66850        0.40670       -0.35574
C         -0.05002        0.21898       -0.08070
Cl        -0.09705        1.95342       -0.19267
H         -2.13308       -2.46151        0.28334
H          0.00174       -3.66309        0.22451
H          3.08518       -1.98622        1.90171
