29

C          1.29370        0.11847        0.34233
C          0.39521       -0.82713        1.14353
C         -1.07851       -0.35823        1.06185
C         -1.96852       -0.84282        2.20845
C         -1.47380       -2.07588        2.96635
C          0.06713       -2.27620        2.98981
C          0.50538       -2.89329        4.31929
C          0.46293       -3.19545        1.81142
C          0.50096       -2.27549        0.58728
C          0.85946       -1.01312        2.60139
N          0.59269        0.16611        3.47929
O          1.62964        0.76923        3.77938
H          1.24091        1.14242        0.72734
H          0.99657        0.14017       -0.71197
H          2.34199       -0.19723        0.38719
H         -1.12280        0.73941        1.05130
H         -1.51863       -0.66799        0.10545
H         -2.98860       -1.01250        1.84333
H         -2.06753       -0.02194        2.93177
H         -1.95789       -2.96417        2.53945
H         -1.86203       -2.01067        3.99129
H          0.25944       -2.23757        5.16152
H          0.00637       -3.85445        4.48672
H          1.58609       -3.07053        4.34232
H         -0.21607       -4.04236        1.66806
H          1.46494       -3.61628        1.96975
H         -0.31276       -2.51721       -0.10530
H          1.43912       -2.43720        0.04313
H          1.94031       -1.21511        2.63822
