32

C          1.18985       -0.09713       -0.16345
C          0.57657       -1.22988        0.66140
C          1.17746       -1.29225        2.06397
N         -0.91959       -1.26222        0.61473
C         -1.64663       -2.19690       -0.16210
O         -2.85740       -2.12702       -0.34289
S         -0.75613       -3.52393       -0.89187
C         -2.09509       -4.64994       -1.35861
C         -2.79938       -5.29507       -0.19524
Cl        -4.52011       -5.01381       -0.14152
C         -2.28670       -6.11619        0.73006
Cl        -0.65403       -6.62250        0.82471
C         -1.74854       -0.19196        1.24071
C         -1.59828       -0.06553        2.75570
C         -1.63275        1.16779        0.55176
H          1.15008        0.86080        0.35995
H          0.68797        0.00927       -1.13051
H          2.24921       -0.30119       -0.35712
H          0.95393       -2.13498        0.18668
H          1.15304       -0.32559        2.57033
H          0.66454       -2.03567        2.68205
H          2.23345       -1.58158        2.00568
H         -2.79140       -4.11685       -2.01556
H         -1.65529       -5.43965       -1.97950
H         -2.87928       -6.56512        1.51844
H         -2.79889       -0.47749        1.11008
H         -0.69397        0.47564        3.04012
H         -2.43910        0.50312        3.16996
H         -1.59354       -1.04853        3.23693
H         -1.66188        1.06695       -0.53774
H         -2.46458        1.81571        0.85108
H         -0.71632        1.69268        0.83092
