16

O          1.53095        2.27678       -0.04966
C          1.14853        1.12457       -0.03609
N          1.90079       -0.00993       -0.03104
C          1.13825       -1.13735       -0.00784
O          1.51015       -2.29296        0.00533
C         -0.25487       -0.69248       -0.00054
C         -1.42884       -1.41860        0.02062
C         -2.62562       -0.69446        0.02119
C         -2.61922        0.71677        0.00082
C         -1.41593        1.42974       -0.01941
C         -0.24858        0.69271       -0.01923
H          2.90785       -0.01461       -0.03864
H         -1.41902       -2.50356        0.03615
H         -3.57637       -1.22494        0.03749
H         -3.56514        1.25608        0.00108
H         -1.39628        2.51457       -0.03480
