16

N          1.05750        0.07845       -0.02322
C          2.31846        0.07845       -0.02322
C          3.83846        0.07845       -0.02322
C          4.35580       -1.35804        0.20861
C          3.95263       -2.50243       -0.77495
Br         4.55556       -1.95156       -2.60265
C          4.72345       -3.72231       -0.43359
N          5.31858       -4.68066       -0.15574
C          2.47236       -2.88348       -0.91922
Br         1.64877       -3.39408        0.77872
H          4.20568        0.49266       -0.96648
H          4.19398        0.72938        0.78320
H          5.45362       -1.28996        0.22870
H          4.07569       -1.65757        1.22824
H          1.85354       -2.09307       -1.34889
H          2.33779       -3.76278       -1.56130
