20

O          0.97657       -0.15085        0.34630
C          2.17704       -0.10339        0.11663
O          2.90800       -1.22297       -0.09808
C          2.98108        1.17553        0.04426
C          2.70230        2.05321       -1.15322
C          2.92636        3.44017       -1.04672
C          2.72932        4.29166       -2.13915
C          2.31634        3.75312       -3.34932
O          2.10699        4.53048       -4.45433
C          2.10700        2.38295       -3.47069
O          1.70857        1.85952       -4.66780
C          2.30063        1.52928       -2.39101
H          3.84774       -1.06286       -0.30605
H          2.76508        1.72184        0.97139
H          4.05315        0.94829        0.06771
H          3.25593        3.86906       -0.10159
H          2.90458        5.35622       -2.02324
H          2.26925        5.45707       -4.20731
H          1.61148        2.63614       -5.25418
H          2.12165        0.46650       -2.53316
