48

C          1.07479       -0.06824       -0.00483
S          0.36355       -1.65507        0.32067
O          1.07957       -2.21258        1.45071
O         -1.07904       -1.50485        0.34182
C          0.73204       -2.69700       -1.07211
C          0.75638       -4.07428       -0.85567
C          1.04926       -4.93219       -1.91491
C          1.33177       -4.43338       -3.20201
C          1.66088       -5.46727       -4.22137
O          1.16117       -6.58674       -4.09724
C          2.63934       -5.23947       -5.32513
C          3.91302       -4.78142       -5.18603
S          4.55841       -4.42671       -3.59449
C          6.03097       -3.47039       -3.85995
C          7.22329       -3.92810       -3.28429
C          8.39882       -3.18383       -3.39366
C          8.39076       -1.97183       -4.07878
C          7.20718       -1.50252       -4.64853
C          6.02692       -2.24381       -4.53128
C          4.85103       -4.80956       -6.39984
C          4.41785       -3.81639       -7.50605
C          3.54213       -4.63101       -8.47267
C          3.31749       -5.94682       -7.73611
C          4.66323       -6.17413       -7.06619
C          2.22833       -5.71650       -6.69411
O          1.04045       -5.80512       -7.00108
C          1.27300       -3.04795       -3.41334
Cl         1.48898       -2.30951       -4.96070
C          0.98512       -2.17892       -2.34447
H          0.93249        0.54832        0.88657
H          0.56121        0.39782       -0.84675
H          2.14165       -0.18351       -0.20284
H          0.54212       -4.48832        0.12897
H          1.06018       -6.00696       -1.72928
H          7.24403       -4.86493       -2.73082
H          9.31509       -3.54650       -2.93411
H          9.30506       -1.38848       -4.15849
H          7.20279       -0.55046       -5.17376
H          5.11031       -1.84806       -4.96043
H          5.90194       -4.67306       -6.13735
H          3.86726       -2.95788       -7.10631
H          5.28839       -3.42465       -8.04381
H          2.61310       -4.10941       -8.72409
H          4.08952       -4.81275       -9.40589
H          3.03629       -6.77802       -8.38870
H          5.44953       -6.35996       -7.80796
H          4.66032       -7.00557       -6.35228
H          0.93839       -1.11045       -2.53184
