36

C          1.16169       -0.19160        0.37866
C          0.87862        1.30282        0.34973
C          1.31847        1.97937       -0.95170
C          0.63011        1.46688       -2.22219
C         -0.89480        1.62311       -2.24655
C         -1.40089        3.06880       -2.17771
C         -0.96685        3.96427       -3.34425
C         -1.46586        3.51985       -4.72403
C         -2.98895        3.49748       -4.88830
C         -3.69052        4.84591       -4.68519
C         -3.26886        5.90475       -5.69582
O         -5.10011        4.64643       -4.80191
H          0.57148       -0.72761       -0.37029
H          0.90472       -0.60478        1.35922
H          2.22163       -0.39317        0.19372
H         -0.18689        1.47809        0.53288
H          1.41551        1.77349        1.18224
H          1.15959        3.05987       -0.85743
H          2.40126        1.84500       -1.06893
H          1.06610        1.98164       -3.08617
H          0.87369        0.40742       -2.36377
H         -1.27938        1.14414       -3.15433
H         -1.33264        1.05998       -1.41429
H         -2.49533        3.05263       -2.11783
H         -1.06457        3.52858       -1.24120
H         -1.30777        4.98674       -3.14495
H          0.12714        4.02469       -3.37201
H         -1.02914        4.18070       -5.48186
H         -1.07588        2.52095       -4.95135
H         -3.22575        3.12135       -5.89270
H         -3.42889        2.75896       -4.20670
H         -3.51445        5.21924       -3.67178
H         -3.44624        5.56033       -6.72073
H         -3.86357        6.81522       -5.56427
H         -2.21281        6.16871       -5.59294
H         -5.28312        4.32525       -5.70193
