12

C         -0.74335       -1.10471        0.24705
O         -1.34853        0.10286       -0.17770
C         -0.58103        1.19695        0.28967
O          0.75556        1.12891       -0.17229
C          1.33250       -0.09223        0.25290
O          0.59296       -1.20756       -0.20973
H         -0.78920       -1.19852        1.33969
H         -1.31176       -1.93655       -0.17882
H         -1.02834        2.11625       -0.09905
H         -0.61094        1.25261        1.38551
H          1.42923       -0.11597        1.34600
H          2.34004       -0.15567       -0.16812
