32

C          1.15125       -0.31616        0.03588
N          0.41305       -0.67203       -1.17160
C         -1.08209       -0.63802       -1.10621
C         -1.60161       -0.87827       -2.55881
C         -2.30903       -2.05107       -2.90504
C         -2.83480       -2.25657       -4.18681
C         -2.63907       -1.31184       -5.18216
C         -1.89482       -0.17376       -4.89951
C         -1.37394        0.04042       -3.61349
Cl        -0.39664        1.45952       -3.44903
C         -1.55259       -1.71206       -0.06638
C         -3.04784       -1.66806        0.28509
C         -3.45916       -0.28298        0.76607
C         -3.11655        0.77493       -0.26708
C         -1.63187        0.72995       -0.57424
O         -0.95210        1.74674       -0.42181
H          0.88277       -0.91294        0.90909
H          1.06541        0.74357        0.28724
H          2.21515       -0.50395       -0.14515
H          0.69274        0.00732       -1.88554
H         -2.47029       -2.85271       -2.19017
H         -3.39146       -3.16561       -4.40428
H         -3.04117       -1.47011       -6.17916
H         -1.70830        0.54718       -5.69286
H         -1.03769       -1.56325        0.88960
H         -1.27491       -2.72305       -0.38969
H         -3.25057       -2.40080        1.07539
H         -3.67229       -1.95444       -0.56567
H         -2.94477       -0.06038        1.70945
H         -4.53461       -0.26756        0.97419
H         -3.36881        1.76741        0.12163
H         -3.67980        0.63022       -1.19445
