8

F          0.96900        0.17251        0.03559
C          2.31698        0.06676       -0.07920
F          2.83837        1.15597        0.54581
C          2.80732       -1.18535        0.61618
Cl         2.34899       -2.65428       -0.28112
H          2.59224        0.10968       -1.13679
H          3.89702       -1.17406        0.70907
H          2.37783       -1.26136        1.61917
