32

C          0.99729       -0.26070        0.22637
C          0.70796        0.86576        1.20697
C          1.15455        2.24120        0.70314
C          0.47405        2.72506       -0.58267
C         -1.05249        2.84502       -0.51329
C         -1.58276        3.83313        0.53177
C         -1.17099        5.29390        0.31692
C         -1.64184        5.92278       -0.99964
C         -3.15779        5.94066       -1.21568
C         -3.90858        6.74791       -0.16741
H          0.41252       -0.15459       -0.69196
H          0.73760       -1.22538        0.67433
H          2.05875       -0.28648       -0.03938
H         -0.35928        0.87394        1.45208
H          1.23744        0.65329        2.14378
H          0.99474        2.97593        1.50107
H          2.23789        2.21745        0.53072
H          0.90474        3.69428       -0.86020
H          0.73157        2.04620       -1.40448
H         -1.42490        3.12706       -1.50471
H         -1.48521        1.85841       -0.31004
H         -2.67669        3.76370        0.55239
H         -1.25292        3.52165        1.52944
H         -1.55059        5.88830        1.15663
H         -0.07925        5.37780        0.37119
H         -1.26892        6.95388       -1.04077
H         -1.17346        5.40150       -1.84281
H         -3.36044        6.37921       -2.20041
H         -3.55392        4.92021       -1.24619
H         -3.52657        7.77218       -0.11332
H         -4.97246        6.79702       -0.42128
H         -3.82608        6.29436        0.82458
