20

O          0.94362        0.18513        0.04868
N          2.16563        0.00486       -0.01517
C          2.87464        1.12936       -0.40213
C          3.99828        0.93051       -1.21126
C          4.78764        2.00906       -1.62029
C          4.47850        3.31710       -1.22151
C          5.27521        4.39873       -1.63208
C          4.97368        5.70156       -1.23491
C          3.87210        5.94025       -0.42192
C          3.07116        4.87533       -0.00630
C          3.35358        3.54844       -0.39439
C          2.56295        2.44470        0.00680
O          1.47997        2.71069        0.82251
H          4.26925       -0.07315       -1.53334
H          5.65195        1.81625       -2.25338
H          6.14289        4.23495       -2.26790
H          5.59945        6.52854       -1.56027
H          3.63218        6.95296       -0.10873
H          2.21274        5.08376        0.63038
H          0.96712        1.88631        0.92381
