48

C          1.35528        0.51599       -0.75311
N          0.72562        1.77588       -0.39295
C         -0.71392        1.79846       -0.59527
C          1.18377        2.36199        0.87890
C          0.65706        1.86943        2.25494
C          1.08235        0.48238        2.62746
C          2.22402        0.09757        3.30330
N          2.29050       -1.27357        3.28431
C          1.22477       -1.78848        2.58321
C          0.93975       -3.08836        2.15480
C         -0.24721       -3.28728        1.42704
C         -1.18153       -2.26002        1.22523
C         -2.47286       -2.51019        0.48031
S         -3.96452       -1.88108        1.31684
O         -3.75555       -0.51670        1.76078
O         -5.08559       -2.16908        0.44307
N         -4.16772       -2.83193        2.68451
C         -3.14269       -2.88498        3.73899
C         -2.67026       -4.32838        3.68499
C         -3.94597       -5.10079        3.41302
C         -4.78586       -4.16620        2.54813
C         -0.83456       -0.97286        1.64682
C          0.38919       -0.71806        2.29100
H          1.09824        0.23915       -1.78241
H          1.07074       -0.32459       -0.12715
H          2.44653        0.60436       -0.72575
H         -1.29017        1.55686        0.29728
H         -1.02316        2.79777       -0.91664
H         -1.02968        1.10396       -1.38341
H          2.28123        2.33059        0.89657
H          0.93789        3.43071        0.82232
H          1.03697        2.55965        3.02078
H         -0.43389        1.95830        2.30497
H          3.01557        0.68014        3.75601
H          3.04561       -1.82261        3.67062
H          1.62656       -3.90845        2.33692
H         -0.44489       -4.28603        1.03960
H         -2.42813       -2.00828       -0.49317
H         -2.64137       -3.57702        0.30223
H         -3.62225       -2.67143        4.70080
H         -2.33556       -2.16404        3.62076
H         -1.99158       -4.49300        2.84778
H         -2.15695       -4.64434        4.59589
H         -3.74981       -6.04870        2.90188
H         -4.46165       -5.32428        4.35235
H         -4.80813       -4.50909        1.51082
H         -5.81474       -4.12137        2.92190
H         -1.48678       -0.13146        1.45400
