39

C          1.36766        0.29119        1.00739
N          0.54546       -0.79930        1.51246
C         -0.87925       -0.51530        1.43682
C          0.93624       -2.11836        0.98314
C          0.21264       -2.72491       -0.24384
C          0.62273       -2.18364       -1.58245
C          0.33129       -0.93515       -2.09813
N          0.94153       -0.80905       -3.31444
C          1.54323       -1.99166       -3.66572
C          2.24476       -2.33237       -4.82585
C          2.69305       -3.65115       -4.95048
C          2.44475       -4.60585       -3.95605
C          2.83456       -6.04744       -4.17836
N          3.96737       -6.46463       -3.37371
C          3.97092       -6.79858       -2.05307
N          5.14497       -7.27877       -1.71971
C          5.83575       -7.23682       -2.89686
N          5.15478       -6.76169       -3.94287
C          1.77676       -4.21513       -2.77809
C          1.32318       -2.88760       -2.62053
H          1.04159        1.25251        1.42096
H          1.35597        0.37942       -0.07903
H          2.40815        0.15854        1.32365
H         -1.24252       -0.41537        0.41011
H         -1.45423       -1.30414        1.93436
H         -1.11615        0.41684        1.96199
H          2.02293       -2.15424        0.82637
H          0.75552       -2.81701        1.81198
H          0.42687       -3.80215       -0.22933
H         -0.87544       -2.65698       -0.13541
H         -0.23059       -0.10860       -1.68664
H          0.92190        0.02001       -3.89272
H          2.41911       -1.60877       -5.61603
H          3.22441       -3.93171       -5.85931
H          1.99356       -6.70818       -3.93675
H          3.08678       -6.22743       -5.23070
H          3.11594       -6.68607       -1.40133
H          6.85971       -7.57335       -2.99456
H          1.56557       -4.93647       -1.99537
