19

O          1.16882        0.60830        0.14609
C          2.30991        0.18584       -0.01770
O          3.01139        0.45829       -1.14423
C          3.09880       -0.59594        1.05320
O          2.87226       -0.09450        2.36954
C          2.75874       -2.07190        1.04820
C          1.47796       -2.51245        1.42447
C          1.16665       -3.87330        1.44765
C          2.13017       -4.81386        1.09364
C          3.40366       -4.39393        0.71417
C          3.71791       -3.03186        0.69064
H          3.92962        0.12743       -1.14673
H          4.16788       -0.45112        0.86330
H          2.48354        0.79420        2.27462
H          0.71600       -1.79122        1.71823
H          0.17428       -4.19717        1.75150
H          1.89022       -5.87373        1.12136
H          4.15639       -5.13145        0.44680
H          4.72489       -2.73489        0.40873
