47

C          0.99076        1.56517       -1.31623
C          0.21878        0.62672       -2.19660
O         -0.98913        0.70628       -2.39023
O          1.03741       -0.31979       -2.72215
C          0.40235       -1.42297       -3.40139
C          1.20775       -2.70935       -3.13303
N          0.90049       -3.41572       -1.86122
C         -0.16788       -4.46039       -1.88067
C          0.12557       -5.68198       -0.95051
C          0.34094       -5.12426        0.44698
N          0.51961       -4.66159        1.60631
C          0.95412       -2.58296       -0.72471
C          2.13941       -2.52011        0.02499
C          2.17353       -1.85827        1.26373
C          1.04407       -1.18810        1.74675
N          1.04967       -0.56020        3.00737
N          1.40232        0.63037        2.87279
C          1.44825        1.30943        4.11013
C          0.59627        2.41004        4.33170
Cl        -0.63877        2.82688        3.19136
C          0.73262        3.22885        5.45952
C          1.73317        2.94538        6.39279
N          1.95221        3.85277        7.52634
O          1.26508        4.88133        7.57853
O          2.82336        3.54267        8.34958
C          2.56127        1.83146        6.22954
C          2.42115        1.02783        5.09117
Cl         3.54216       -0.28090        4.91936
C         -0.11792       -1.19147        0.97442
C         -0.16662       -1.89150       -0.23649
H          0.54564        1.57239       -0.31759
H          0.97707        2.56897       -1.74580
H          2.03057        1.23836       -1.21732
H         -0.64743       -1.55019       -3.11487
H          0.44048       -1.19210       -4.47113
H          1.03671       -3.40480       -3.96273
H          2.27963       -2.47408       -3.14006
H         -1.14151       -4.02191       -1.62988
H         -0.26639       -4.85378       -2.89948
H         -0.71550       -6.38114       -0.96045
H          1.03208       -6.20023       -1.27916
H          3.01130       -3.08523       -0.29492
H          3.06738       -1.91490        1.87949
H          0.07889        4.09125        5.58224
H          3.33821        1.59974        6.95660
H         -0.99967       -0.66586        1.33013
H         -1.10134       -1.88688       -0.78931
