37

C          0.96254       -0.26974       -0.08817
C          0.36982        0.76337       -1.00239
C         -0.52402        0.26969       -2.10782
C          0.63009        2.08084       -0.89522
C          1.57008        2.75068        0.07614
C          2.86541        3.23187       -0.60206
C          2.65813        4.37925       -1.57286
C          2.36639        4.14747       -2.86041
C          2.05321        5.19671       -3.87680
C          2.25460        6.66989       -3.44770
C          0.89936        7.40203       -3.45772
C          3.12482        7.40565       -4.47192
O          3.66550        6.89650       -5.45081
C          2.95956        6.86374       -2.08333
C          2.77029        5.77024       -1.02904
H          0.60625       -1.27664       -0.32804
H          0.67906       -0.06940        0.95059
H          2.05393       -0.28033       -0.16832
H         -1.43470        0.87382       -2.17774
H          0.00448        0.31805       -3.06638
H         -0.83458       -0.76770       -1.95078
H          0.15126        2.75857       -1.60203
H          1.04949        3.59515        0.54351
H          1.83786        2.06788        0.88996
H          3.58011        3.53966        0.17178
H          3.34377        2.38840       -1.11888
H          2.28952        3.11947       -3.21351
H          1.00501        5.03846       -4.16790
H          2.63129        4.94599       -4.77197
H          1.01744        8.47120       -3.24337
H          0.42557        7.33404       -4.44539
H          0.21001        6.98172       -2.71869
H          3.27259        8.48179       -4.27386
H          4.04075        6.97408       -2.24788
H          2.65177        7.81944       -1.63506
H          3.63727        5.82179       -0.35610
H          1.88817        5.98578       -0.41597
