33

C          1.14961        1.21760       -0.50965
C          0.38546        2.18699        0.00735
C         -1.05062        2.07471        0.42502
O         -1.24514        1.81369        1.80976
C         -0.89966        0.50517        2.34673
C         -1.77944       -0.64617        1.73425
N         -1.35619       -1.46215        0.60902
C         -1.45840       -1.18620       -0.72865
C         -1.01628       -2.31288       -1.38149
N         -0.80815       -3.32465       -0.49468
C         -1.11257       -2.81443        0.67608
C          0.59153        0.44134        2.69415
C          1.26563        1.67517        2.89075
C          2.65108        1.76018        3.03676
C          3.40018        0.59755        3.04608
Cl         5.11326        0.68246        3.14580
C          2.75967       -0.63460        3.02142
C          1.36127       -0.70738        2.90702
Cl         0.67519       -2.24480        3.25092
H          0.80073        0.20126       -0.64866
H          2.19010        1.40535       -0.76298
H          0.83492        3.16972        0.14189
H         -1.50392        3.05625        0.23975
H         -1.63410        1.39641       -0.18227
H         -1.33434        0.58728        3.35599
H         -2.00586       -1.35417        2.54300
H         -2.74930       -0.22226        1.43968
H         -1.80845       -0.25520       -1.13735
H         -0.88787       -2.45702       -2.44640
H         -1.17643       -3.38397        1.59371
H          0.70588        2.61140        2.87856
H          3.12621        2.73410        3.11701
H          3.34664       -1.54467        3.12040
