34

C          1.12730        0.11882       -0.13364
C          0.26163        0.94045        0.47398
C         -1.21449        0.69239        0.53579
O         -1.65238        0.71408        1.89706
C         -1.43639       -0.40210        2.63587
O         -0.96536       -1.45141        2.21497
C         -1.93066       -0.21387        4.05500
C         -1.32856        0.99343        4.78562
C         -1.88416        2.36899        4.36427
C         -3.36072        2.55912        4.74219
C         -3.87870        3.91442        4.26115
C         -3.01809        5.06959        4.76532
C         -1.53877        4.86167        4.45406
C         -1.04130        3.50786        4.95909
H          0.79342       -0.79318       -0.62068
H          2.19155        0.32962       -0.13843
H          0.63180        1.83638        0.96602
H         -1.72615        1.51789        0.02824
H         -1.52548       -0.23398        0.04089
H         -3.02383       -0.20042        4.04676
H         -1.63456       -1.11644        4.60561
H         -1.49837        0.86273        5.86252
H         -0.24114        0.98259        4.63799
H         -1.80288        2.47424        3.27994
H         -3.98129        1.77438        4.29782
H         -3.48160        2.48611        5.83038
H         -4.91373        4.05283        4.59324
H         -3.89357        3.92426        3.16389
H         -3.14838        5.17219        5.84915
H         -3.36068        6.00637        4.31132
H         -0.94748        5.66630        4.90432
H         -1.38394        4.92243        3.36900
H         -1.08382        3.48091        6.05486
H          0.01029        3.38559        4.67339
