44

C          1.20409        0.26041       -0.30651
C          1.18029       -1.24956       -0.48565
C          1.55443       -2.01920        0.78841
C          0.51877       -1.92589        1.91412
N         -0.74199       -2.52613        1.50491
C         -1.50773       -3.56903        1.89911
S         -2.98305       -3.61439        1.08348
N         -1.08880       -4.46969        2.86036
C          0.32077       -4.87936        3.00156
C          0.96250       -4.50825        4.34701
C          0.84213       -5.54248        5.47185
C          1.53473       -6.86328        5.17579
C         -2.05276       -5.36089        3.55138
C         -2.63722       -4.75624        4.83690
C         -3.88344       -3.88427        4.67578
C         -5.10746       -4.65197        4.19627
H          0.47043        0.59310        0.43286
H          0.96702        0.75449       -1.25435
H          2.19519        0.59903        0.01143
H          0.19377       -1.55846       -0.84891
H          1.89462       -1.51463       -1.27437
H          1.69405       -3.07204        0.51420
H          2.52145       -1.65772        1.15720
H          0.89710       -2.37896        2.82602
H          0.30802       -0.88000        2.15880
H         -1.24776       -1.97027        0.82549
H          0.37990       -5.95597        2.80893
H          0.90452       -4.44262        2.18950
H          2.03308       -4.33744        4.17379
H          0.55107       -3.55807        4.70794
H          1.29674       -5.11390        6.37392
H         -0.20358       -5.73470        5.72126
H          2.58145       -6.70679        4.89797
H          1.51302       -7.50242        6.06479
H          1.03689       -7.40762        4.36882
H         -2.83830       -5.69121        2.86855
H         -1.52158       -6.28142        3.82241
H         -2.89452       -5.58288        5.51188
H         -1.87212       -4.16285        5.34986
H         -4.12274       -3.45102        5.65495
H         -3.68021       -3.03882        4.01295
H         -5.34286       -5.47697        4.87612
H         -5.97628       -3.98691        4.15982
H         -4.96882       -5.06765        3.19541
