39

C          1.00105        0.04334       -0.04082
C          0.60189       -1.29008        0.49484
C         -0.50786       -1.54697        1.19947
C         -0.59236       -2.97713        1.62180
C          0.45228       -3.65797        0.71883
C          1.03988       -4.89508        1.35410
C          1.04300       -6.10968        0.78212
C          1.68876       -7.32559        1.40807
C          0.61715       -8.38270        1.69695
C          2.81625       -7.90365        0.51706
C          3.92396       -6.89661        0.21484
O          3.41568       -9.03389        1.15738
C          1.47302       -2.52719        0.34640
C          2.67120       -2.43067        1.30882
C          1.98662       -2.72737       -1.08647
H          0.34505        0.83668        0.33275
H          0.94703        0.04904       -1.13355
H          2.02269        0.29503        0.25840
H         -1.25731       -0.81186        1.46330
H         -1.59100       -3.38603        1.43591
H         -0.36706       -3.07055        2.68961
H         -0.07631       -3.95854       -0.20013
H          1.49706       -4.76821        2.33413
H          0.58441       -6.24792       -0.19604
H          2.12876       -7.05429        2.37781
H          0.15914       -8.75209        0.77263
H          1.04312       -9.24036        2.22833
H         -0.17961       -7.97106        2.32697
H          2.39681       -8.26192       -0.43056
H          4.36460       -6.50987        1.14038
H          4.73491       -7.37942       -0.34143
H          3.55943       -6.05303       -0.37824
H          3.83342       -8.72202        1.97859
H          3.30878       -3.31960        1.24358
H          3.30455       -1.56795        1.07235
H          2.34841       -2.32325        2.35092
H          1.16654       -2.71727       -1.81366
H          2.68888       -1.93632       -1.37351
H          2.50953       -3.68496       -1.18603
