138

C          1.52958        0.10778       -0.18375
C          0.77461        1.17283        0.61069
C          1.12521        2.57100        0.10523
C         -0.74613        0.94430        0.53981
C         -1.21772       -0.32868        1.25375
C         -0.86863       -0.36827        2.74529
C         -1.41520        0.82714        3.53482
C         -2.94315        0.94508        3.48936
C         -3.66818       -0.29431        4.01359
C         -3.25356       -0.67640        5.43056
C         -3.66952        0.35760        6.48124
C         -5.16115        0.29674        6.81876
C         -5.59081       -1.02877        7.43997
O         -4.92809       -1.19950        8.69554
C         -3.76741       -1.89310        8.70847
O         -3.17364       -2.45548        7.81234
C         -3.34767       -1.90487       10.10034
C         -2.24352       -1.19703       10.56354
C         -1.96578       -1.22603       11.93129
C         -2.76866       -1.98836       12.80849
C         -2.40050       -1.96250       14.23118
O         -2.03402       -0.94528       14.79421
O         -2.37637       -3.22557       14.70349
C         -1.87843       -3.39833       16.03619
C         -0.48945       -4.02419       15.94535
C          0.56874       -3.03410       15.44881
C          0.72926       -1.81787       16.36483
C          1.32337       -2.16778       17.73059
C          2.80632       -2.53711       17.65969
C          3.67509       -1.44253       17.02993
C          3.54243       -0.08243       17.72665
C          4.02511       -0.09388       19.18078
C          5.49152       -0.51435       19.33950
C          6.47877        0.36575       18.55084
C          6.53322        1.78128       19.12417
C          7.86743       -0.26857       18.53878
C         -3.84476       -2.72701       12.30753
C         -4.71329       -3.60867       13.11013
O         -5.14232       -3.37844       14.22293
O         -4.90961       -4.70668       12.33948
C         -5.60461       -5.83927       12.86808
C         -4.59961       -6.98281       12.99373
C         -3.42117       -6.64589       13.90808
C         -3.84698       -6.34024       15.34105
C         -4.26468       -7.56266       16.14934
C         -3.08281       -8.46667       16.51204
C         -1.96047       -7.76197       17.28865
C         -2.41897       -7.10510       18.59618
C         -2.99359       -8.09445       19.61559
C         -2.03336       -9.22820       19.99836
C         -0.71067       -8.75002       20.62541
C         -0.94330       -8.12795       22.00210
C          0.27808       -9.91114       20.72436
C         -4.14251       -2.65792       10.94999
H          1.19368        0.08146       -1.22575
H          1.37913       -0.88772        0.24581
H          2.60596        0.30467       -0.17659
H          1.11221        1.12639        1.65181
H          0.78971        2.72095       -0.92529
H          0.65359        3.33463        0.73388
H          2.20723        2.73533        0.14360
H         -1.26959        1.81103        0.96147
H         -1.06398        0.89343       -0.50911
H         -2.30309       -0.41983        1.12636
H         -0.79504       -1.21371        0.76617
H         -1.24195       -1.30731        3.17014
H          0.21781       -0.41441        2.87734
H         -1.07151        0.75351        4.57302
H         -0.97779        1.76038        3.16467
H         -3.24657        1.82747        4.06274
H         -3.27837        1.13824        2.46486
H         -4.75015       -0.12962        3.96908
H         -3.47545       -1.14730        3.35244
H         -3.68556       -1.65762        5.63725
H         -2.17140       -0.83167        5.49472
H         -3.07476        0.21206        7.38939
H         -3.42020        1.37131        6.15357
H         -5.37173        1.10249        7.53307
H         -5.76246        0.49436        5.92592
H         -6.66400       -0.99196        7.65553
H         -5.43830       -1.89120        6.78404
H         -1.62520       -0.61756        9.88220
H         -1.11653       -0.66205       12.31806
H         -1.90479       -2.47512       16.62033
H         -2.55741       -4.07030       16.56177
H         -0.20263       -4.43365       16.91875
H         -0.51502       -4.86844       15.24460
H          1.52583       -3.55674       15.34014
H          0.30796       -2.68982       14.44144
H          1.33432       -1.06625       15.84907
H         -0.22695       -1.31755       16.52990
H          1.18318       -1.31540       18.40491
H          0.76970       -2.98780       18.19916
H          3.16203       -2.76184       18.67162
H          2.93459       -3.46456       17.09041
H          4.71848       -1.77447       17.02635
H          3.42051       -1.32490       15.97071
H          4.09165        0.66871       17.14970
H          2.50294        0.26323       17.70225
H          3.87030        0.90025       19.61411
H          3.39895       -0.77007       19.77523
H          5.74728       -0.49407       20.40631
H          5.60155       -1.56155       19.03253
H          6.16694        0.43417       17.50326
H          6.80508        1.76684       20.18481
H          7.26883        2.39082       18.59061
H          5.56562        2.28456       19.02963
H          7.83656       -1.24451       18.04127
H          8.57301        0.36008       17.98541
H          8.25270       -0.41207       19.55236
H         -6.11640       -5.61377       13.80723
H         -6.37224       -6.11375       12.13752
H         -5.10775       -7.88947       13.33508
H         -4.18692       -7.20095       12.00023
H         -2.69778       -7.46771       13.88755
H         -2.88114       -5.77933       13.50710
H         -3.00916       -5.85915       15.83482
H         -4.65449       -5.60562       15.36997
H         -4.76018       -7.22147       17.06589
H         -5.01776       -8.14181       15.60527
H         -3.45998       -9.31547       17.09258
H         -2.65674       -8.89862       15.59986
H         -1.16319       -8.48574       17.48855
H         -1.48487       -7.00115       16.66004
H         -1.57396       -6.56367       19.03606
H         -3.16960       -6.33316       18.39016
H         -3.29971       -7.54336       20.51157
H         -3.91463       -8.53659       19.21722
H         -2.54932       -9.89937       20.69655
H         -1.82221       -9.83712       19.11107
H         -0.24285       -7.99585       19.98320
H         -1.45050       -8.83055       22.67188
H          0.00541       -7.84041       22.46607
H         -1.55702       -7.22459       21.93049
H          0.51350      -10.30004       19.72739
H          1.21798       -9.58139       21.17958
H         -0.12589      -10.73184       21.32493
H         -4.99584       -3.19423       10.53718
