49

C          0.33438       -0.83655        0.62909
C         -0.35838        0.23142        1.42109
O         -1.54218        0.51269        1.30209
O          0.52969        0.89465        2.22276
C          0.03248        2.12482        2.78350
C          0.45508        3.32861        1.90999
O          0.32648        2.98631        0.51382
C          1.27485        2.39587       -0.24847
C          2.63796        2.11945        0.31167
O          1.02904        2.10792       -1.41720
C         -0.40468        4.57448        2.24452
O          0.40439        5.47794        3.05743
C         -0.08879        6.81208        2.84833
O          0.88614        7.78070        2.38785
C          1.79433        7.53624        1.42198
C          2.71640        6.38078        1.66351
O          1.92018        8.27229        0.44793
C         -1.30918        6.70849        1.91241
O         -1.51883        7.96944        1.27068
C         -2.53037        8.08964        0.38406
C         -2.07160        7.81114       -1.00813
O         -3.65282        8.46799        0.68320
C         -0.95354        5.45535        1.09742
O          0.10983        5.73771        0.16699
C         -0.01459        5.32343       -1.12546
C          1.27660        5.54692       -1.86313
O         -1.01654        4.83115       -1.60699
H          0.30062       -0.57094       -0.43151
H         -0.15806       -1.79556        0.79797
H          1.38355       -0.92406        0.92580
H         -1.05409        2.08011        2.91858
H          0.46087        2.22985        3.78715
H          1.49745        3.56479        2.13554
H          2.89503        1.08144        0.07681
H          3.35879        2.78992       -0.16323
H          2.72220        2.21798        1.39045
H         -1.24292        4.28418        2.89193
H         -0.41462        7.19441        3.82115
H          2.29882        5.45618        1.27136
H          3.65879        6.56604        1.13876
H          2.94274        6.28947        2.72716
H         -2.19254        6.47527        2.52692
H         -2.46062        6.84162       -1.31881
H         -2.41602        8.59520       -1.68284
H         -0.97862        7.81843       -1.04275
H         -1.82630        5.00770        0.61129
H          1.73611        4.58655       -2.10287
H          1.08552        6.11828       -2.77285
H          1.98339        6.11319       -1.25093
