18

C          1.06530       -0.03237        0.14410
C          0.36700        1.23089        0.63176
O         -0.96591        0.84821        1.02300
O         -1.68511        2.04012        1.46810
N          1.04502        1.78257        1.78154
C          1.15871        3.14978        1.66347
O          1.44786        3.91158        2.56868
N          0.86970        3.51768        0.36845
C          0.38933        2.40583       -0.39672
O          1.33411        2.26750       -1.43777
H          0.57070       -0.42663       -0.75050
H          1.01592       -0.82081        0.90448
H          2.12183        0.14229       -0.08471
H         -1.75138        1.78864        2.40802
H          1.02989        1.36708        2.69994
H          0.70266        4.48755        0.14142
H         -0.59288        2.63581       -0.81887
H          2.15582        2.62600       -1.05938
