22

C          1.12700        0.11845        0.25586
C          0.37705       -0.24296        1.30475
C         -1.07004       -0.46105        1.21949
C         -1.90294        0.08942        2.20025
C         -3.28530       -0.09466        2.13448
C         -3.83509       -0.84318        1.09287
O         -5.25528       -0.96907        1.12830
C         -6.26490       -1.13660        0.17417
C         -5.82470       -1.26079       -1.24971
O         -7.44490       -1.19199        0.50440
C         -3.02051       -1.45226        0.14743
C         -1.63793       -1.24689        0.20623
H          0.70419        0.27757       -0.73130
H          2.19332        0.28482        0.37214
H          0.83117       -0.35925        2.28563
H         -1.48404        0.67743        3.01381
H         -3.92836        0.34447        2.89261
H         -5.46971       -2.27644       -1.43789
H         -6.68507       -1.07655       -1.90138
H         -5.07128       -0.51244       -1.50103
H         -3.41239       -2.09683       -0.62795
H         -1.00215       -1.71928       -0.53969
