22

C          1.84066        1.52670        0.00408
C          0.59265        0.68308        0.00221
C         -0.65143        1.33914        0.00236
C         -1.84501        0.62164       -0.00004
C         -1.81663       -0.76794       -0.00325
C         -0.58746       -1.44031       -0.00306
S         -0.60731       -3.22068       -0.00961
O         -0.06348       -3.67529       -1.27048
O         -0.08068       -3.68420        1.25520
O         -2.16294       -3.65420       -0.02308
C          0.63780       -0.73114        0.00101
C          1.95190       -1.47255        0.00314
H          2.43202        1.32856        0.90367
H          2.44007        1.32083       -0.88845
H          1.60525        2.59649       -0.00210
H         -0.69714        2.42705        0.00429
H         -2.79598        1.14858        0.00020
H         -2.75754       -1.31230       -0.00570
H         -2.19755       -4.63275       -0.04892
H          2.03251       -2.10319        0.89354
H          2.04373       -2.08825       -0.89654
H          2.81907       -0.80792        0.01515
