33

O          0.87970        0.27931        0.37216
C          2.08240        0.09485        0.23963
C          2.72360       -1.25632        0.10491
C          4.22065       -1.24049        0.23742
C          4.94888       -2.43572        0.14456
C          6.34373       -2.42210        0.21284
C          7.02179       -1.22021        0.39285
C          6.30176       -0.03279        0.49133
C          4.90690       -0.03493        0.40358
N          4.27959        1.20394        0.31580
C          2.99461        1.28563        0.15578
C          2.42607        2.57698       -0.37364
C          2.83403        2.62159       -1.83783
O          2.38118        1.95140       -2.74328
C          4.01325        3.48363       -1.94897
C          4.95727        3.51099       -2.95710
C          6.10261        4.28215       -2.73950
C          6.26687        5.01304       -1.54477
C          5.29747        4.97174       -0.53741
C          4.18721        4.18135       -0.76075
C          3.14627        3.78433        0.19515
O          2.96605        4.30964        1.27304
H          2.45324       -1.65131       -0.88040
H          2.30603       -1.90080        0.88642
H          4.43494       -3.38212       -0.00877
H          6.90358       -3.34846        0.11230
H          8.10753       -1.20005        0.43176
H          6.82921        0.91310        0.59286
H          1.34635        2.69306       -0.27065
H          4.84361        2.90461       -3.85049
H          6.89382        4.29305       -3.48725
H          7.17931        5.58622       -1.38969
H          5.43948        5.48623        0.40785
