22

C          1.09662        0.03615        0.05574
C          0.21315        0.99689       -0.28053
C         -1.24675        0.71485       -0.18181
C          0.80098        2.29748       -0.73575
O          2.02786        2.43892       -0.78526
N          0.07687        3.37732       -1.11371
C         -1.33874        3.70799       -1.22945
C         -1.66908        4.87841       -0.30732
C         -1.66908        4.04788       -2.68020
H          0.77501       -0.94194        0.39808
H          2.17108        0.19400        0.00049
H         -1.72548        1.38746        0.53617
H         -1.72548        0.79289       -1.16253
H         -1.44407       -0.30328        0.17454
H          0.71236        4.12314       -1.37475
H         -1.96225        2.87183       -0.93678
H         -1.10836        5.77748       -0.58642
H         -2.73705        5.11663       -0.34693
H         -1.41287        4.63816        0.73041
H         -1.41287        3.21291       -3.34159
H         -2.73705        4.25880       -2.79779
H         -1.10836        4.92476       -3.02270
