39

C          0.98925        0.12583       -0.10802
C          0.62562       -1.34097        0.06842
C          1.12483       -1.84584        1.39005
C          0.32889       -2.37451        2.33103
C          0.80705       -2.78221        3.69526
C          0.16252       -1.94050        4.80509
C         -1.36361       -2.06729        4.91988
C         -1.87057       -3.49326        5.15353
C         -1.42945       -4.10620        6.48618
C         -2.03158       -3.44370        7.73341
C         -3.55950       -3.43260        7.79871
C         -4.12732       -4.81431        8.00767
O         -4.52771       -5.23543        9.08457
O         -4.09298       -5.52541        6.84896
C         -4.40495       -6.91138        6.99024
H          0.57306        0.73717        0.70057
H          0.59715        0.50475       -1.05654
H          2.07610        0.26365       -0.11112
H         -0.46242       -1.45234       -0.00992
H          1.07205       -1.93297       -0.73757
H          2.18965       -1.73477        1.58469
H         -0.73205       -2.49824        2.12403
H          0.60636       -3.84813        3.84589
H          1.89596       -2.66805        3.76548
H          0.62535       -2.20648        5.76230
H          0.40664       -0.88303        4.63900
H         -1.71051       -1.41285        5.72780
H         -1.83172       -1.67648        4.00867
H         -2.96334       -3.49413        5.08107
H         -1.53460       -4.14430        4.33887
H         -1.67951       -5.17261        6.48101
H         -0.33704       -4.07484        6.56713
H         -1.64078       -3.96661        8.61561
H         -1.66878       -2.41191        7.80461
H         -3.87507       -2.82244        8.65423
H         -4.02247       -2.97110        6.92137
H         -3.92291       -7.34355        7.87355
H         -5.48857       -7.04517        7.03325
H         -4.01836       -7.43256        6.10957
