17

N          0.95810       -0.07727       -0.15814
C          0.19110        0.96014       -0.73113
C         -0.91945        1.49014       -0.07653
C         -1.59043        2.59079       -0.63585
N         -2.77523        3.13163        0.04136
O         -3.10225        2.62173        1.12169
O         -3.37635        4.06533       -0.50749
C         -1.14335        3.18616       -1.82406
C         -0.01368        2.67263       -2.45881
Cl         0.53364        3.41827       -3.91304
C          0.64607        1.57108       -1.91107
O          1.74965        1.02953       -2.52003
H          0.46185       -0.56794        0.58511
H          1.83609        0.28702        0.21687
H         -1.26210        1.04720        0.85584
H         -1.65957        4.04157       -2.25495
H          1.89693        0.18027       -2.05678
