25

C          0.97668        0.24839        0.01435
O          0.27728        0.93421       -1.02510
C          0.92988        2.00504       -1.54690
O          1.96638        2.49704       -1.12162
C          0.21257        2.49066       -2.77678
C          0.88906        1.94915       -4.03238
C          0.66948        0.45568       -4.19075
C         -0.43806       -0.05420       -5.07914
O          1.32786       -0.34258       -3.51703
C          0.48592        2.73404       -5.25241
O          1.25235        3.01717       -6.16307
O         -0.85417        2.98123       -5.26405
C         -1.33429        3.57236       -6.47466
H          0.61142       -0.78234        0.03751
H          0.75742        0.72079        0.97536
H          2.05635        0.21934       -0.16479
H         -0.84655        2.21361       -2.71868
H          0.24334        3.58804       -2.75382
H          1.97513        2.09187       -3.93872
H         -0.27530       -1.11819       -5.27740
H         -1.40147        0.07595       -4.58129
H         -0.43560        0.45277       -6.04577
H         -0.98378        4.60500       -6.55433
H         -1.02222        2.98570       -7.34510
H         -2.42725        3.57201       -6.43906
