40

C          0.64457        0.00323        0.74948
C          0.25888        1.14012       -0.19864
C         -1.11464        1.72233        0.19405
C         -0.77814        3.13640        0.48032
C         -1.64765        4.13751        0.88687
C         -1.13535        5.41837        1.07394
C          0.22528        5.67335        0.85501
C          1.08933        4.64835        0.44835
C          0.57761        3.37184        0.25318
N          1.30588        2.20427       -0.13580
N          2.10584        2.44429       -1.32805
C          3.14750        1.55788       -1.59081
O          4.32071        1.91332       -1.62308
C          2.79196        0.16926       -1.95609
C          1.78983       -0.07024       -2.89994
C          1.31406       -1.36797       -3.08750
C          1.85329       -2.43459       -2.35621
Cl         1.06732       -3.95970       -2.54470
C          2.92266       -2.19963       -1.48466
S          3.65205       -3.49927       -0.54026
N          2.47542       -3.79588        0.62366
O          3.77284       -4.69111       -1.33916
O          4.77475       -2.96775        0.20219
C          3.41587       -0.89643       -1.30491
H          0.05505       -0.89265        0.52845
H          0.46919        0.27622        1.79553
H          1.70184       -0.25664        0.67287
H          0.15764        0.75121       -1.21236
H         -1.81428        1.65514       -0.64610
H         -1.55453        1.22875        1.06627
H         -2.70005        3.93100        1.05427
H         -1.79319        6.22224        1.39533
H          0.61408        6.67652        1.01285
H          2.14489        4.85968        0.31639
H          2.51380        3.37549       -1.26846
H          1.33337        0.75802       -3.43863
H          0.48679       -1.53328       -3.77547
H          2.11460       -4.74526        0.51386
H          2.86214       -3.61114        1.55089
H          4.22469       -0.69255       -0.60406
