17

C          1.06690       -0.02205        0.13350
C          0.55770        0.14800       -1.29288
C          1.04048       -0.94724       -2.26414
N          0.57314       -2.27168       -1.83572
C          0.56117       -0.66627       -3.70529
O          1.10610        0.54813       -4.21276
H          0.67729       -0.93200        0.59876
H          0.74434        0.82461        0.74823
H          2.16058       -0.05923        0.15642
H         -0.53881        0.18391       -1.28040
H          0.89979        1.12747       -1.64740
H          2.13777       -0.94350       -2.26168
H          0.94165       -2.98128       -2.46974
H          0.96245       -2.49442       -0.92050
H          0.89232       -1.46803       -4.37450
H         -0.53204       -0.61389       -3.76579
H          0.61906        1.27899       -3.79672
