19

C          0.92520       -0.13468        0.01620
N          0.46324        0.10313       -1.34194
C         -0.98995       -0.03601       -1.51215
C         -1.92116        0.99697       -0.86252
Cl        -2.26651        2.36609       -1.95143
C          1.08715        1.24668       -2.02389
C          1.16615        2.61167       -1.31717
Cl         2.55428        2.73868       -0.20351
H          0.55507       -1.09858        0.38426
H          0.59686        0.63849        0.71739
H          2.01797       -0.20108        0.04762
H         -1.21693       -0.12506       -2.58242
H         -1.26372       -1.01746       -1.10065
H         -2.88645        0.53098       -0.64070
H         -1.52330        1.39161        0.07611
H          2.10367        0.94398       -2.30934
H          0.57243        1.39333       -2.98222
H          1.30182        3.39933       -2.06507
H          0.26727        2.84428       -0.74534
