46

C          0.97731       -0.12647       -0.04336
C          0.62080        1.31314       -0.26735
O          0.33173        1.76573       -1.36917
O          0.74708        1.98381        0.90152
C          0.41113        3.26760        0.93690
C          1.16093        4.28264        1.50187
C          0.49556        5.54626        1.49876
C         -0.75144        5.43365        0.92681
S         -1.12867        3.85659        0.44214
C         -1.68662        6.58097        0.78565
C         -1.30144        7.65755        1.81954
N          0.13665        7.97068        1.80512
C          0.47310        9.20201        2.58397
C          0.27521        8.99306        4.10698
O          0.95972        8.24501        4.80139
C         -0.78405        9.77968        4.81038
C         -2.14415       10.12799        4.26839
C         -2.01602        9.02529        5.27546
C          1.84553        9.74547        2.17883
C          2.95842        9.79576        3.03392
C          4.20304       10.23788        2.56789
C          4.36143       10.63148        1.24094
C          3.26752       10.60646        0.38253
C          2.02809       10.18006        0.85532
F          0.99127       10.18867        0.00398
C          1.01277        6.81982        2.11111
H          0.64184       -0.72073       -0.89769
H          0.47219       -0.50459        0.84985
H          2.06068       -0.22183        0.06220
H          2.14451        4.11543        1.92328
H         -2.72721        6.27781        0.94601
H         -1.60664        6.99297       -0.22780
H         -1.60775        7.32371        2.81700
H         -1.88214        8.55244        1.57048
H         -0.22692        9.99509        2.28757
H         -0.36283       10.47165        5.53543
H         -2.60111       11.05383        4.60434
H         -2.41792        9.86551        3.25710
H         -2.15680        8.00246        4.94235
H         -2.36765        9.19974        6.28585
H          2.89520        9.47693        4.07167
H          5.05539       10.25951        3.24384
H          5.33390       10.95363        0.87788
H          3.36922       10.90665       -0.65561
H          2.01884        7.00729        1.71830
H          1.09533        6.62798        3.18291
