37

O          0.87625       -0.28786       -0.38687
C          2.04110       -0.00669       -0.14212
O          2.86941        0.51953       -1.07452
C          2.68600       -0.18465        1.22656
O          2.43604        0.88214        2.13793
C          3.13468        2.00974        1.87389
O          3.82015        2.20858        0.88307
C          2.87302        2.99828        2.94184
C          2.55173        4.30764        2.55749
C          2.26728        5.28066        3.52567
O          2.01353        6.54629        3.04046
C          2.26636        7.63306        3.84859
C          1.19102        8.50626        4.04342
C          1.34785        9.65944        4.81735
C          2.58472        9.95883        5.40812
C          2.74616       11.20803        6.24234
F          2.73916       12.33924        5.48689
F          1.74674       11.35746        7.15474
F          3.90690       11.23620        6.95328
C          3.67042        9.09871        5.17602
C          3.52111        7.95266        4.38519
Cl         4.93461        7.00684        4.08287
C          2.23672        4.93447        4.88140
C          2.58693        3.64211        5.27816
C          2.92578        2.68817        4.30630
N          3.41715        1.39691        4.76472
O          2.83473        0.87774        5.72562
O          4.41138        0.92956        4.19299
H          3.69431        0.88969       -0.68672
H          2.28222       -1.10417        1.66410
H          3.76398       -0.36233        1.11937
H          2.53159        4.58038        1.50321
H          0.22745        8.29163        3.58562
H          0.49952       10.33020        4.95526
H          4.64482        9.33278        5.60468
H          1.97641        5.66460        5.64415
H          2.61720        3.39854        6.33931
