20

O          0.97767        0.03468       -0.20016
C          0.37157       -0.99065       -0.88214
C          0.80135       -2.30030       -0.66681
C          0.19596       -3.34268       -1.36006
C         -0.83334       -3.07252       -2.26293
C         -1.28335       -1.75535       -2.49190
C         -2.32251       -1.45712       -3.39828
O         -2.92473       -2.48187       -4.08456
C         -2.75260       -0.14749       -3.61317
C         -2.14938        0.89454       -2.91749
C         -1.12064        0.62426       -2.01406
C         -0.66969       -0.69276       -1.78619
H          1.69638       -0.33284        0.33881
H          1.59977       -2.52463        0.03309
H          0.52109       -4.36755       -1.20241
H         -1.29425       -3.90104       -2.79827
H         -3.62952       -2.11193       -4.64001
H         -3.54993        0.07710       -4.31423
H         -2.47525        1.91930       -3.07427
H         -0.66087        1.45258       -1.47743
