38

C          0.74617        0.03829       -0.02389
C          0.62336       -1.46726       -0.22456
N          1.06495       -2.30983        0.90447
C          0.08650       -3.04330        1.58325
C          0.47478       -3.84974        2.80399
O         -1.10443       -3.02832        1.25438
C          2.46910       -2.50675        1.07593
C          3.02999       -3.78745        1.12517
C          4.39929       -3.95680        1.35496
C          5.23008       -2.84621        1.51799
C          4.69785       -1.55509        1.44473
C          5.53623       -0.34900        1.61317
C          6.60799       -0.17456        0.81689
C          7.35987        1.09389        1.00198
N          7.07800        2.03799        1.84653
C          5.97949        1.83006        2.63602
C          5.38338        2.59871        3.61101
C          5.80146        3.87874        4.06861
N          6.10447        4.92197        4.47432
C          4.28114        1.85922        4.05193
N          4.16282        0.69113        3.42276
N          5.20548        0.66048        2.54226
C          3.31964       -1.40683        1.22250
H          0.53703        0.33506        1.00809
H          0.04993        0.56557       -0.68438
H          1.74472        0.39180       -0.29976
H         -0.43159       -1.67196       -0.43789
H          1.17121       -1.77773       -1.12248
H         -0.23790       -3.62855        3.60484
H          0.41303       -4.91430        2.55913
H          1.46399       -3.61685        3.19687
H          2.41282       -4.67060        0.97975
H          4.81655       -4.95941        1.41648
H          6.28699       -3.00287        1.72170
H          6.93383       -0.86317        0.04934
H          8.23282        1.21975        0.33940
H          3.55106        2.11867        4.80932
H          2.90505       -0.40573        1.24873
