16

O          1.37556        0.35645       -0.32312
N          2.54900       -0.00964       -0.19743
N          2.60749       -1.25110        0.22890
C          2.17546       -2.25695       -0.76734
C          2.21713       -3.66427       -0.16096
O          3.53016       -3.98341        0.31432
C          3.94608       -3.03148        1.29993
C          3.94981       -1.61130        0.72445
H          2.83406       -2.22293       -1.64644
H          1.15097       -2.06136       -1.10789
H          1.49918       -3.76599        0.66200
H          1.95367       -4.40443       -0.92334
H          4.95708       -3.30550        1.61796
H          3.29093       -3.10646        2.17647
H          4.68489       -1.55392       -0.09069
H          4.26785       -0.91799        1.51361
