24

C          0.92688       -0.09305       -0.06683
C          0.65716        0.02064       -1.55603
O          1.14306       -1.13244       -2.26008
C          2.46738       -1.13463       -2.54124
O          3.28143       -0.28866       -2.20284
C          2.85693       -2.31325       -3.33681
C          1.97626       -3.13444       -3.92624
C          2.36581       -4.26529       -4.78837
O          1.55176       -4.85657       -5.48159
O          3.69013       -4.53237       -4.70048
C          4.17603       -5.56834       -5.56770
C          3.90631       -6.94289       -4.98352
H          0.52256       -1.02990        0.32936
H          0.47386        0.74454        0.47153
H          2.00118       -0.09536        0.14162
H         -0.42358        0.06267       -1.72777
H          1.08495        0.93944       -1.97375
H          3.92882       -2.43383       -3.45062
H          0.90437       -2.98803       -3.84841
H          3.74824       -5.46655       -6.57184
H          5.25677       -5.41907       -5.66246
H          2.83201       -7.13964       -4.91463
H          4.35933       -7.72093       -5.60483
H          4.31063       -7.01851       -3.96915
