27

C          1.11500       -0.45186       -0.01009
C          0.39983       -1.75268        0.06758
N         -0.91236       -1.86389        0.20659
C         -1.15984       -3.19896        0.23049
C         -0.01848       -3.92580        0.10774
C         -0.00530       -5.34732        0.10684
O          1.02354       -6.00984       -0.00180
N         -1.28133       -5.90717        0.24267
C         -1.34243       -7.35586        0.25032
C         -2.48431       -5.18499        0.36860
O         -3.57099       -5.75927        0.48163
N         -2.39212       -3.79190        0.35971
C         -3.58243       -2.97017        0.48272
N          0.98799       -3.00179       -0.00334
C          2.38381       -3.33069       -0.16538
H          0.76767        0.20680        0.79281
H          0.89437        0.03511       -0.96517
H          2.19795       -0.53896        0.08810
H         -0.91953       -7.73332       -0.68661
H         -0.73214       -7.73180        1.07822
H         -2.35963       -7.73916        0.35876
H         -3.48938       -2.33702        1.37080
H         -3.67550       -2.34095       -0.40822
H         -4.48815       -3.57450        0.57862
H          2.71037       -3.88938        0.71577
H          2.49359       -3.93741       -1.06812
H          2.98907       -2.43096       -0.26787
