26

O          1.13692       -0.03629       -0.01064
S          2.57523        0.09802       -0.01327
O          3.24757        1.07203        0.81937
O          3.16858       -1.34220        0.40950
C          3.09008        0.35630       -1.68363
C          3.49845       -0.70989       -2.46995
C          3.90307       -0.47355       -3.78898
C          3.90767        0.82551       -4.36905
C          4.27467        1.17401       -5.70289
S          4.77505        0.03485       -6.97496
O          3.85243        0.19092       -8.07981
O          6.19856        0.20582       -7.17012
O          4.57931       -1.47828       -6.46936
C          4.25296        2.51426       -6.13918
C          3.87129        3.53207       -5.27913
C          3.49843        3.22012       -3.97831
C          3.50581        1.89531       -3.51611
C          3.10643        1.65259       -2.19277
H          2.82384       -1.55785        1.30097
H          3.50576       -1.72550       -2.08117
H          4.21961       -1.34903       -4.34283
H          4.88955       -2.07163       -7.18524
H          4.53630        2.76640       -7.16099
H          3.85937        4.56425       -5.62037
H          3.19740        4.03410       -3.31962
H          2.80024        2.47789       -1.55019
