13

O          1.36078        0.54092       -0.69714
N          2.27195       -0.02132       -0.06951
O          2.53751       -1.22781       -0.21428
C          3.00932        0.72503        0.95852
N          2.63766        2.14607        0.96758
O          2.22573        2.66360        2.01778
O          2.83024        2.80292       -0.07091
N          2.67035        0.06661        2.22690
O          3.55634       -0.52308        2.86523
O          1.47625        0.05643        2.57498
N          4.45702        0.70963        0.71012
O          4.89245        0.21074       -0.33953
O          5.19357        1.27688        1.53642
