29

C          0.93491        0.14086       -0.06015
O          0.43115        0.37121       -1.36885
C          0.12149       -0.72516       -2.12588
C         -0.29122       -0.43294       -3.41875
C         -0.64193       -1.46222       -4.28261
C         -0.59258       -2.79423       -3.85922
O         -0.97478       -3.67479       -4.83123
C         -0.18806       -3.14400       -2.55437
C         -0.13878       -4.59580       -2.01956
C         -1.54595       -5.23531       -2.05983
C          0.87378       -5.44197       -2.82402
C          0.31848       -4.70753       -0.53757
C          0.17470       -2.06294       -1.70847
H          0.21431       -0.40626        0.55639
H          1.09694        1.11518        0.41109
H          1.89867       -0.37729       -0.09900
H         -0.33982        0.59852       -3.75663
H         -0.96148       -1.22943       -5.29519
H         -0.91402       -4.58149       -4.50932
H         -1.95781       -5.33243       -3.06627
H         -1.53132       -6.24514       -1.63246
H         -2.26011       -4.64044       -1.47739
H          1.87544       -4.99772       -2.77808
H          0.94439       -6.45873       -2.41894
H          0.62037       -5.54798       -3.88055
H          1.33434       -4.32022       -0.39578
H         -0.35607       -4.16744        0.13730
H          0.32907       -5.75301       -0.20488
H          0.49976       -2.26396       -0.69559
