20

O          1.04314       -0.34719        0.18399
C          2.22753       -0.14599       -0.00926
O          2.95322        0.79560        0.63067
C          3.01269       -0.84843       -1.04285
C          2.54893       -0.74141       -2.35788
C          3.26636       -1.34154       -3.38238
C          4.43643       -2.04326       -3.08399
C          4.90539       -2.18160       -1.78317
N          6.03495       -2.88106       -1.58534
C          6.47899       -3.04421       -0.32101
C          5.83790       -2.53065        0.78622
C          4.67534       -1.79772        0.58055
C          4.18059       -1.58909       -0.72713
H          3.86258        0.90614        0.29003
H          1.63573       -0.19170       -2.57885
H          2.92300       -1.26850       -4.41152
H          4.99684       -2.50993       -3.89248
H          7.39173       -3.62549       -0.22278
H          6.22652       -2.70216        1.78392
H          4.14971       -1.40950        1.45131
