22

C          0.99267       -0.13403       -0.02343
S          0.43143       -1.80629        0.33954
C          0.93361       -2.76662       -1.02272
C          1.76619       -2.34414       -1.98066
C          2.19032       -3.19738       -3.10487
O          2.91721       -2.74273       -3.97851
C          1.72913       -4.59283       -3.12819
C          2.17340       -5.45123       -4.14285
C          1.74965       -6.78047       -4.16714
C          0.88102       -7.25227       -3.18420
C          0.43534       -6.39526       -2.17593
C          0.86226       -5.05975       -2.14489
C          0.38771       -4.16648       -1.06615
O         -0.42379       -4.59536       -0.25239
H          0.64196        0.53719        0.76565
H          0.58738        0.21935       -0.97545
H          2.08493       -0.08584       -0.04380
H          2.19847       -1.35223       -2.00555
H          2.85241       -5.08893       -4.91313
H          2.09805       -7.44807       -4.95233
H          0.55004       -8.28856       -3.20097
H         -0.24329       -6.77405       -1.41277
