80

C          2.31063       -0.41324        0.68995
C          1.01010       -1.30556        0.35078
C          1.75306       -2.61874        0.09004
C          0.96249       -3.77625       -0.37218
C          0.03368       -3.43799       -1.54085
C         -0.61181       -2.01037       -1.40146
C         -1.51004       -1.81388       -2.63742
C         -2.64979       -2.88965       -2.74397
C         -2.16953       -4.36463       -2.74017
O         -1.60735       -4.67423       -4.02284
C         -2.26468       -4.45083       -5.26970
O         -1.26769       -4.49867       -6.31338
C         -0.40984       -5.65469       -6.17817
C          0.79743       -5.16270       -5.34525
O          1.79031       -6.11472       -5.02740
C         -1.19041       -6.97066       -5.83840
O         -0.80026       -7.59677       -4.61812
C         -2.74422       -6.87106       -5.88262
O         -3.34497       -7.74264       -4.90009
C         -3.31605       -5.45214       -5.78392
O         -4.57934       -5.43270       -5.11363
C         -3.19142       -5.46542       -2.49067
C         -2.84946       -6.69179       -2.03470
C         -1.44649       -7.10559       -1.66549
C         -0.41289       -5.98119       -1.80946
C         -1.06622       -4.57536       -1.61431
C         -1.74554       -4.67417       -0.21293
O         -2.75431       -4.07848        0.14549
C          0.30590       -0.76729       -0.89493
O          1.16295       -0.34641       -1.94246
C         -0.22536        0.58482       -0.18868
C         -0.16322        0.41247        1.37884
C         -0.32806       -1.10120        1.46578
C         -2.01526       -0.99207        1.42052
C         -2.88850       -1.00170        0.25052
C         -3.75111       -0.03786       -0.08059
C         -4.00637        1.00254        0.91339
O         -4.56312        2.04143        0.61493
O         -3.70353        0.60608        2.20015
C         -2.65208       -0.34909        2.42970
H          2.52834       -0.42573        1.76281
H          2.24872        0.62174        0.33845
H          3.22148       -0.78116        0.19585
H          2.49350       -2.45204       -0.71263
H          2.33911       -2.91373        0.96966
H          1.66509       -4.56128       -0.68063
H          0.44902       -4.14909        0.51264
H          0.62837       -3.44219       -2.46381
H         -1.22623       -2.21700       -0.55730
H         -0.89287       -1.86110       -3.54421
H         -1.96609       -0.81855       -2.62153
H         -3.21935       -2.65433       -3.64614
H         -3.39107       -2.75855       -1.95842
H         -2.67954       -3.44451       -5.32111
H         -0.01074       -5.82572       -7.18510
H          1.28214       -4.36171       -5.91805
H          0.50684       -4.65576       -4.42547
H          2.35380       -5.68483       -4.35826
H         -0.91337       -7.70786       -6.60274
H         -1.55878       -8.17423       -4.38223
H         -3.08310       -7.28494       -6.84034
H         -3.90689       -7.16215       -4.34295
H         -3.53607       -5.14228       -6.81770
H         -5.20669       -5.92448       -5.67856
H         -4.23829       -5.23689       -2.66543
H         -3.61619       -7.44606       -1.87463
H         -1.12270       -7.99143       -2.21854
H         -1.46029       -7.42180       -0.61369
H          0.08225       -6.04221       -2.78022
H          0.37909       -6.18023       -1.07845
H         -1.22828       -5.31986        0.52078
H          1.48007       -1.11690       -2.43463
H         -1.22338        0.86727       -0.51700
H          0.41237        1.44700       -0.41787
H         -0.86625        1.05854        1.90988
H          0.76903        0.70969        1.86877
H         -0.05457       -1.57929        2.41361
H         -2.98150       -1.89399       -0.32834
H         -4.35844       -0.04554       -0.97799
H         -2.25860       -0.13934        3.41333
