18

Cl         0.90756        0.04203       -0.34757
C          2.61500       -0.00723       -0.09091
C          3.29779        1.20916       -0.00181
C          4.69804        1.27219        0.20903
C          5.41155        2.49574        0.30432
Cl         4.62478        4.03494        0.16860
C          6.79167        2.52051        0.51390
C          7.49552        1.32950        0.63278
C          6.82127        0.11028        0.54252
Cl         7.78905       -1.31947        0.70309
C          5.41872        0.05267        0.33089
C          4.70149       -1.16621        0.23572
C          3.31959       -1.19956        0.02838
Cl         2.55462       -2.74523       -0.06855
H          2.71784        2.12599       -0.09940
H          7.32329        3.46682        0.58535
H          8.57064        1.35614        0.79599
H          5.22523       -2.11708        0.32495
