19

O         -3.16181        1.02199        0.02089
C         -2.02344        0.56565        0.01580
C         -1.80048       -0.89863        0.00899
C         -0.56152       -1.40759        0.00207
O         -0.30601       -2.76231       -0.00334
C          0.60950       -0.51822        0.00058
C          1.92484       -0.99704       -0.00877
C          3.00185       -0.10637       -0.00906
C          2.77383        1.26975        0.00030
C          1.46856        1.76163        0.00931
C          0.39572        0.86872        0.00899
N         -0.91477        1.36420        0.01655
H         -2.69418       -1.50727        0.01023
H         -1.15300       -3.23967        0.00076
H          2.11971       -2.06704       -0.01602
H          4.01947       -0.48942       -0.01654
H          3.61485        1.95875        0.00038
H          1.30277        2.83485        0.01635
H         -1.08452        2.36060        0.02168
