31

C          0.67856        0.08990       -0.04826
C          0.57105       -1.38712       -0.32100
O          0.08975       -2.18163        0.47710
C          1.00378       -1.88123       -1.64902
C          0.01300       -2.46820       -2.44716
C          0.33010       -2.94780       -3.71878
C          1.63265       -2.84268       -4.20924
O          1.81412       -3.33971       -5.48251
C          3.07057       -3.31818       -6.03262
C          3.28574       -2.48777       -7.13297
C          4.54146       -2.45690       -7.74154
C          5.56770       -3.26483       -7.25112
Cl         7.12056       -3.21228       -7.98983
C          5.34350       -4.11931       -6.17073
C          4.08373       -4.16142       -5.56994
C          2.61877       -2.25698       -3.40860
C          2.32806       -1.80436       -2.10363
C          3.45097       -1.27063       -1.25615
F          4.66345       -1.79588       -1.59056
F          3.58511        0.07761       -1.38076
F          3.30436       -1.51652        0.07210
H          0.04018        0.34079        0.80448
H          0.32572        0.66073       -0.91144
H          1.70368        0.36860        0.19768
H         -1.00782       -2.55752       -2.07849
H         -0.44540       -3.40361       -4.33101
H          2.47935       -1.86733       -7.51468
H          4.71193       -1.80627       -8.59517
H          6.14190       -4.75501       -5.79698
H          3.90029       -4.83833       -4.73988
H          3.63959       -2.15584       -3.77305
