22

C          1.18574        0.09157       -0.04325
C          0.60934       -0.57989       -1.28481
O          1.07730       -1.93222       -1.31843
C         -0.93264       -0.60498       -1.29475
N         -1.53663        0.73015       -1.29747
C         -3.00738        0.67499       -1.29155
C         -3.63216        0.14729        0.01934
N         -3.00977        0.72406        1.21721
H          0.81546       -0.39167        0.86779
H          0.93652        1.15557       -0.00194
H          2.27684       -0.00378       -0.02710
H          0.97809       -0.07834       -2.18691
H          2.04598       -1.89962       -1.39465
H         -1.25867       -1.15745       -2.18551
H         -1.27182       -1.19273       -0.43333
H         -1.25627        1.25433       -0.46809
H         -3.36322        1.70091       -1.44785
H         -3.37450        0.09123       -2.14380
H         -4.70275        0.37793        0.02419
H         -3.53645       -0.94334        0.06513
H         -3.47843        0.34933        2.04187
H         -2.04799        0.39335        1.27740
