31

C         -0.32015        1.00866       -0.63677
C         -0.06946        1.60681        0.72240
C         -0.28202        0.98208        1.90795
C         -0.72014       -0.42733        2.12967
O         -1.55607       -0.68447        2.99954
N         -0.33312       -1.48937        1.36890
C          0.69486       -1.71365        0.45021
C          0.40947       -2.60976       -0.58934
C          1.33108       -2.82456       -1.61200
C          2.56969       -2.19244       -1.56588
C          2.88590       -1.35537       -0.49325
C          1.94706       -1.10729        0.51514
S         -0.29905        1.95442        3.36342
O          0.88533        1.65138        4.14368
O         -1.61429        1.95031        3.98824
C         -0.10215        3.60761        2.78888
C          0.90753        3.58342        1.68816
O          0.34853        2.91678        0.56278
H         -0.81146        1.74493       -1.28288
H         -0.97939        0.14003       -0.61707
H          0.62844        0.75190       -1.11836
H         -0.96561       -2.26962        1.51710
H         -0.56232       -3.09517       -0.65043
H          1.07548       -3.47343       -2.44610
H          3.29062       -2.35772       -2.36295
H          3.86815       -0.89121       -0.44763
H          2.22340       -0.46708        1.34720
H          0.21815        4.22449        3.63283
H         -1.07715        3.96005        2.43440
H          1.13436        4.60757        1.37383
H          1.85353        3.10893        1.97259
