38

C          1.05745        0.01782       -0.16517
O          0.48001        0.70091       -1.28490
C          0.85004        1.98078       -1.52879
N         -0.03049        2.81227       -1.96838
C          0.43095        4.09394       -2.16805
C         -0.62906        5.06421       -2.61071
N          1.64923        4.50552       -1.98772
C          2.57050        3.59864       -1.53395
N          3.75773        4.07492       -1.33871
C          4.76566        3.31964       -0.82218
O          4.35143        2.20387       -0.17166
N          5.98408        3.71783       -0.92257
S          7.14958        2.75514       -0.35533
O          6.67844        2.27995        0.93628
O          7.47493        1.81925       -1.41298
C          8.59352        3.73810       -0.06440
C          8.50248        5.13555       -0.17311
C          9.64243        5.92822       -0.01259
C         10.87439        5.33661        0.25140
C         10.96932        3.94918        0.35623
C          9.83324        3.13339        0.20305
C         10.09279        1.67581        0.31936
O         11.16213        1.13843        0.11334
O          9.05397        0.97809        0.79086
N          2.13246        2.33207       -1.32554
H          0.53801       -0.93738       -0.04930
H          0.91289        0.60549        0.74674
H          2.11762       -0.18887       -0.33295
H         -1.07326        4.71788       -3.54794
H         -1.41170        5.11442       -1.84706
H         -0.20734        6.06180       -2.75525
H          5.04530        1.87987        0.44014
H          7.55600        5.62470       -0.39530
H          9.57252        7.01045       -0.10437
H         11.76474        5.95093        0.36916
H         11.94271        3.50102        0.55715
H          9.36774        0.04902        0.80756
H          2.81978        1.66876       -1.00621
