12

O         -1.89451       -0.00568        0.01414
C         -0.67865       -0.00368        0.00312
N          0.13466        1.10866        0.10680
C          1.51258        0.75701       -0.10304
C          1.51664       -0.75717        0.06949
N          0.13630       -1.11335       -0.11532
H         -0.26618        2.03570        0.06056
H          2.15679        1.27670        0.61003
H          1.78112        1.04601       -1.12417
H          1.80462       -1.04526        1.08556
H          2.14950       -1.27476       -0.65518
H         -0.26059       -2.04170       -0.06187
