48

C          1.45630        0.13179        0.52122
N          0.56160        0.20536        1.64930
C         -0.32937        1.20002        1.96432
O         -0.93579        1.15725        3.03784
C         -0.62395        2.28417        0.99004
C         -1.42809        1.99161       -0.10599
C         -1.90412        3.05252       -0.87164
O         -2.81573        2.98458       -1.90926
C         -3.01579        1.80198       -2.57303
C         -2.78152        1.78906       -3.94578
C         -2.90328        0.59542       -4.66501
C         -3.16645       -0.60054       -3.99962
N         -3.03773       -1.87953       -4.57019
C         -2.49019       -2.36152       -5.70858
O         -2.87740       -3.46492       -6.10796
N         -1.56496       -1.71365       -6.45025
C         -0.56748       -0.78062       -6.13077
C         -0.05561       -0.00761       -7.17435
C          0.80831        1.05471       -6.90195
C          1.18234        1.33937       -5.58633
Cl         2.19444        2.71085       -5.32279
C          0.72896        0.53602       -4.53633
C          1.06813        0.83528       -3.10552
F          2.37907        0.62123       -2.80997
F          0.79344        2.11515       -2.73301
F          0.37090        0.05774       -2.22481
C         -0.10828       -0.55889       -4.83271
C         -3.57317       -0.54184       -2.66195
C         -3.53544        0.66587       -1.96097
C         -1.49890        4.34737       -0.54327
C         -0.65538        4.53271        0.54172
N         -0.21683        3.53120        1.32862
H          1.44609        1.04737       -0.07067
H          1.15605       -0.72340       -0.08883
H          2.46539       -0.04590        0.90093
H          0.66028       -0.48639        2.38290
H         -1.69235        0.95982       -0.28185
H         -2.48294        2.70006       -4.45843
H         -2.73827        0.61919       -5.73697
H         -3.52875       -2.62116       -4.08364
H         -1.53072       -2.09055       -7.39055
H         -0.37705       -0.17365       -8.20013
H          1.15650        1.68134       -7.72046
H         -0.44612       -1.20267       -4.02200
H         -3.87741       -1.44001       -2.12994
H         -3.85959        0.69509       -0.92431
H         -1.84334        5.20128       -1.11713
H         -0.32175        5.52651        0.82801
