35

C          0.86174        0.35073       -0.40030
N          0.69655       -1.00682       -0.88638
C          0.87017       -2.05095        0.11525
C          0.97841       -1.23604       -2.21809
O          1.58291       -0.41876       -2.91524
N          0.62615       -2.42804       -2.77915
C         -0.51859       -3.22536       -2.57926
C         -0.57374       -4.44912       -3.25492
C         -1.69053       -5.28065       -3.12836
C         -2.76828       -4.89472       -2.33119
O         -3.83567       -5.76661       -2.30578
C         -4.69017       -5.69221       -1.23438
C         -4.29861       -6.15352        0.02401
C         -5.19959       -6.09543        1.08865
C         -6.48454       -5.59080        0.88171
Cl        -7.59218       -5.51397        2.19631
C         -6.88107       -5.15259       -0.38257
C         -5.98285       -5.21320       -1.44890
C         -2.73428       -3.65886       -1.68269
C         -1.61378       -2.82933       -1.80806
H          0.24405        0.49323        0.49104
H          0.55276        1.07123       -1.16397
H          1.91500        0.51970       -0.15628
H          0.05277       -1.98587        0.83878
H          0.90515       -3.05299       -0.31522
H          1.82247       -1.88423        0.62969
H          1.13078       -2.59625       -3.64056
H          0.25357       -4.77552       -3.88014
H         -1.71929       -6.23010       -3.65701
H         -3.30057       -6.55565        0.17441
H         -4.89770       -6.44742        2.07138
H         -7.88459       -4.76799       -0.54359
H         -6.28390       -4.88116       -2.43871
H         -3.57588       -3.30722       -1.09286
H         -1.64026       -1.85847       -1.32252
