25

C          1.36455        0.09929        0.01570
N          0.50791        1.26588        0.06043
C         -0.34719        1.74992       -0.90203
O         -0.72310        2.91810       -0.83974
C         -0.79150        0.89692       -2.03374
C         -0.75195        1.50052       -3.30181
C         -1.16067        0.79083       -4.42661
C         -1.16915        1.41518       -5.71694
N         -1.18276        1.91100       -6.76647
C         -1.58354       -0.53222       -4.28489
C         -1.64287       -1.15146       -3.01870
C         -2.17409       -2.56124       -2.98222
C         -1.26203       -0.42844       -1.86627
N         -1.57880       -0.92526       -0.58903
H          1.30658       -0.42563       -0.93807
H          1.07682       -0.56411        0.83587
H          2.39352        0.42972        0.17873
H          0.73332        1.97327        0.75165
H         -0.42201        2.53493       -3.39564
H         -1.90748       -1.08726       -5.16622
H         -3.24049       -2.56616       -3.22815
H         -1.63733       -3.17597       -3.71404
H         -2.04423       -3.05062       -2.01513
H         -1.50807       -1.92760       -0.46814
H         -1.16964       -0.40695        0.18517
