17

C          1.06266        0.08461        0.05705
C          0.51012        1.51627        0.09872
C          1.01210        2.29789       -1.12358
C         -1.02415        1.53386        0.16720
O         -1.54790        0.74180        1.22972
N          1.03023        2.24247        1.34058
O          1.75717        1.61715        2.12461
O          0.72570        3.43831        1.46503
H          0.67763       -0.45146       -0.81816
H          0.78646       -0.49501        0.94498
H          2.15710        0.07794       -0.01116
H          0.70114        1.80903       -2.05378
H          0.61886        3.32092       -1.14611
H          2.10634        2.36670       -1.13145
H         -1.41394        2.55031        0.29243
H         -1.45132        1.14781       -0.76629
H         -1.51648       -0.19612        0.97260
