28

C          1.12331        0.25255        0.16940
C          0.57428        0.87944       -1.10525
C          1.24872        0.32683       -2.35458
O         -0.83923        0.71889       -1.18359
P         -1.41589       -0.91189       -1.21402
C         -2.81205       -0.44125       -0.06562
O         -1.94488       -0.63183       -2.62594
O         -1.99255       -2.54267       -1.24445
C         -2.13366       -3.34463       -2.41194
C         -3.42801       -3.05101       -3.16522
C         -0.89286       -3.36944       -3.29176
H          0.99123       -0.83411        0.17284
H          0.59271        0.64043        1.04532
H          2.19094        0.46595        0.28293
H          0.75713        1.95828       -1.06492
H          1.12385       -0.75792       -2.43194
H          0.80265        0.76303       -3.25483
H          2.32079        0.54745       -2.35314
H         -3.08114        0.60932       -0.20817
H         -3.69383       -1.05347       -0.27596
H         -2.48672       -0.60250        0.96417
H         -2.24693       -4.36314       -2.01966
H         -3.38667       -2.11823       -3.73281
H         -3.64939       -3.85032       -3.87986
H         -4.26771       -2.96464       -2.46712
H         -0.01157       -3.62944       -2.69631
H         -1.00241       -4.10940       -4.09156
H         -0.68872       -2.40284       -3.75826
