10

C         -0.09347       -1.42642        0.00005
C          1.11581       -0.77024        0.01179
N          1.23458        0.57059        0.01361
C          0.08008        1.25537        0.00300
N         -1.15305        0.72512       -0.00935
C         -1.20808       -0.61983       -0.01056
H         -0.16325       -2.50473       -0.00082
H          2.05291       -1.31913        0.02035
H          0.15010        2.33747        0.00468
H         -2.20810       -1.04335       -0.02064
