37

O          2.14649       -0.23584        1.76948
C          1.01997       -0.18461        1.00322
C          0.40617        1.04900        0.84256
C         -0.67821        1.16882       -0.02386
C         -1.12574        0.05459       -0.76337
C         -2.05097        0.25680       -1.98449
C         -3.47094        0.58607       -1.46411
N         -4.55483        0.49438       -2.44516
C         -4.29061        1.19731       -3.69782
C         -3.55127        2.53442       -3.54940
C         -2.03829        2.41186       -3.49275
C         -1.38996        1.27835       -2.94276
C          0.00198        1.11588       -3.16536
C          0.76181        2.14361       -3.69350
O          2.12405        2.05413       -3.78059
C          0.15651        3.32771       -4.08053
O          0.96187        4.34802       -4.51592
C         -1.23343        3.46292       -4.00921
Cl        -1.93865        4.96763       -4.51611
C         -0.55611       -1.20268       -0.51066
C          0.52261       -1.32053        0.36959
H          2.56790       -1.10127        1.64367
H          0.80384        1.92814        1.34296
H         -1.10079        2.15686       -0.19925
H         -2.10701       -0.69253       -2.53656
H         -3.73088       -0.11376       -0.65851
H         -3.49393        1.57688       -0.99283
H         -4.76741       -0.48195       -2.64896
H         -3.75343        0.53688       -4.39087
H         -5.26628        1.39088       -4.15972
H         -3.82432        3.10248       -4.44694
H         -3.91625        3.10909       -2.69026
H          0.50117        0.21180       -2.82364
H          2.40270        1.23261       -3.33788
H          1.87338        4.00659       -4.42001
H         -0.89993       -2.08353       -1.04844
H          0.98396       -2.29118        0.51838
