38

C          0.71952       -0.36645        0.10129
C          0.16546        0.91951        0.69440
C          0.69406        2.17227       -0.00708
C          0.31066        2.33345       -1.49420
C         -1.20433        2.44816       -1.67654
C          0.98626        3.56562       -2.12795
O          2.41729        3.43263       -2.12506
C          3.06984        4.02468       -1.09098
O          2.52579        4.66221       -0.19579
C          4.57546        3.84960       -1.17895
C          4.98006        2.55209       -1.88322
C          5.21728        5.06816       -1.85759
C          4.88776        6.42364       -1.21742
C          5.27847        6.52745        0.24927
H          0.33984       -0.53578       -0.91023
H          0.42570       -1.22217        0.71667
H          1.81363       -0.34021        0.05982
H         -0.92841        0.89654        0.68776
H          0.46745        0.96991        1.74806
H          0.34958        3.05303        0.54992
H          1.78425        2.14541        0.09087
H          0.66649        1.45126       -2.03951
H         -1.60401        3.30643       -1.12514
H         -1.45941        2.58007       -2.73364
H         -1.72035        1.54867       -1.32952
H          0.69236        3.64304       -3.18146
H          0.66332        4.49853       -1.64962
H          4.93811        3.76009       -0.14746
H          4.68941        2.55331       -2.93947
H          6.06473        2.40788       -1.83551
H          4.50411        1.68692       -1.40804
H          6.30713        4.94009       -1.86420
H          4.90136        5.10630       -2.90830
H          5.41351        7.20705       -1.77573
H          3.81920        6.64182       -1.32568
H          6.35243        6.36558        0.38019
H          5.03399        7.52368        0.63149
H          4.74369        5.80233        0.86920
