28

C          1.03136       -0.00921       -0.18072
C          0.58837       -0.77151        1.03205
C          0.75449       -2.15125        1.09305
C          0.36740       -2.84921        2.23851
C         -0.18772       -2.21202        3.33911
N         -0.51191       -2.96934        4.39421
C         -0.99964       -2.38931        5.49726
C         -1.27183       -3.20660        6.58682
C         -1.76380       -2.69932        7.78990
C         -1.98479       -1.33732        7.91555
C         -1.72219       -0.49747        6.83308
C         -1.23775       -1.00506        5.59876
C         -0.98333       -0.21609        4.44156
N         -1.15156        1.19809        4.49456
C         -0.37522       -0.81761        3.30337
C          0.04030       -0.11394        2.14038
H          0.61523        1.00361       -0.18937
H          0.68923       -0.51037       -1.09236
H          2.12300        0.06496       -0.20008
H          1.19053       -2.69577        0.25890
H          0.50993       -3.92721        2.27595
H         -1.08814       -4.27524        6.49671
H         -1.96221       -3.36924        8.62197
H         -2.35631       -0.92568        8.85021
H         -1.88911        0.56690        6.96947
H         -1.30688        1.61086        3.58134
H         -1.88666        1.48406        5.13194
H         -0.05401        0.96766        2.09790
