74

C          1.24849        0.01282        0.18900
C          0.65859        1.03242       -0.80786
C          1.21553        0.67305       -2.20700
C         -0.87456        0.82049       -0.81792
C          0.98630        2.50549       -0.48184
C          1.78683        2.92301        0.58426
C          2.06396        4.28763        0.78498
C          1.53241        5.27166       -0.06728
O          2.05436        6.58846        0.13667
C          1.31171        7.58702        0.75767
O          0.17711        7.48244        1.21252
C          2.03087        8.89999        0.74167
C          1.29396       10.05428        0.44437
C          1.87221       11.34696        0.44366
C          0.99242       12.54224       -0.02543
C          0.60012       12.28858       -1.50142
C         -0.29093       12.63672        0.83352
C          1.62037       13.95843        0.00549
C          3.23242       11.43485        0.82380
O          3.76066       12.69216        0.88462
C          4.03359       10.29126        1.11676
C          5.55386       10.37969        1.44615
C          6.31827       11.18077        0.36184
C          5.79202       11.00360        2.84300
C          6.25646        8.99549        1.49176
C          3.38919        9.02490        1.05836
C          0.70444        4.90704       -1.15284
C         -0.00559        5.88136       -2.11618
C         -1.26215        6.43293       -1.40378
C          0.92368        7.00089       -2.62548
C         -0.52904        5.21350       -3.42683
C          0.45947        3.51843       -1.31040
H          0.97522       -1.01248       -0.09326
H          0.87387        0.17840        1.20492
H          2.34287        0.05685        0.21386
H          0.99049       -0.36830       -2.46781
H          0.78779        1.29659       -3.00003
H          2.30403        0.79777       -2.24377
H         -1.31620        1.08951        0.14836
H         -1.37574        1.41923       -1.58636
H         -1.12919       -0.22621       -1.02325
H          2.22589        2.20484        1.27208
H          2.71478        4.57597        1.60673
H          0.24257        9.93103        0.18714
H          0.00564       11.37723       -1.62392
H          0.00406       13.11539       -1.90472
H          1.49408       12.18617       -2.12901
H         -0.04494       12.79572        1.89004
H         -0.92021       13.47568        0.51063
H         -0.91172       11.73818        0.76801
H          1.89053       14.26364        1.02290
H          2.50439       14.03099       -0.63797
H          0.91264       14.71121       -0.36634
H          4.48805       12.72719        1.51612
H          6.04514       12.23708        0.31521
H          7.39954       11.16078        0.54519
H          6.14329       10.75452       -0.63312
H          5.29881       10.41444        3.62476
H          6.86345       11.03406        3.07842
H          5.43059       12.02833        2.94575
H          5.86184        8.36620        2.29766
H          6.14877        8.45721        0.54346
H          7.33189        9.10528        1.68101
H          3.93183        8.10939        1.27352
H         -1.17725        6.42970       -0.31687
H         -1.50290        7.44963       -1.72790
H         -2.14250        5.81001       -1.61078
H          1.69275        6.58697       -3.28985
H          0.35948        7.74481       -3.19953
H          1.44476        7.55225       -1.84930
H          0.27508        4.69827       -3.96519
H         -1.32864        4.48642       -3.23929
H         -0.95804        5.96291       -4.10272
H         -0.17281        3.18495       -2.12682
