28

C          1.25226        0.21261       -0.16909
C          0.45775        0.20517       -1.46533
N          0.85581       -0.85910       -2.37505
C          0.52853       -2.19232       -2.19906
C         -0.18488       -2.84509       -1.17902
C         -0.34309       -4.23123       -1.26279
C          0.18381       -4.94676       -2.33231
C          0.88040       -4.28823       -3.34983
C          1.05783       -2.88952       -3.28643
C          1.69162       -1.93762       -4.14335
C          2.36299       -2.04534       -5.38116
C          2.88155       -0.90031       -5.99200
C          2.74890        0.34193       -5.38297
C          2.09311        0.47549       -4.15441
C          1.56186       -0.67910       -3.55124
H          1.07371       -0.69388        0.41767
H          0.95933        1.06853        0.44717
H          2.32780        0.27779       -0.36152
H         -0.61273        0.08298       -1.26618
H          0.57592        1.16543       -1.97567
H         -0.60368       -2.30019       -0.33922
H         -0.88546       -4.75575       -0.47981
H          0.05197       -6.02441       -2.38128
H          1.28409       -4.85264       -4.18535
H          2.46968       -3.01308       -5.86185
H          3.39039       -0.98515       -6.94882
H          3.15873        1.22438       -5.86920
H          2.00114        1.45414       -3.69580
