12

Cl         1.11265        2.21920        0.03078
C          1.54514        0.54552        0.01525
C          2.91180        0.24241        0.02292
C          3.34174       -1.08531        0.01064
C          2.40712       -2.11763       -0.00952
C          1.04206       -1.82429       -0.01694
C          0.60541       -0.49280       -0.00442
I         -1.46820       -0.17397       -0.01617
H          3.65031        1.04076        0.03851
H          4.40518       -1.31263        0.01675
H          2.74010       -3.15304       -0.01940
H          0.32958       -2.64615       -0.03251
