19

C          1.02127        0.16985        0.06658
C          0.63476        0.78520       -1.26911
C          1.03914       -0.06595       -2.47570
C          0.42104       -1.46956       -2.54138
C         -1.10205       -1.52764       -2.49150
N         -1.67546       -0.96012       -3.75486
O         -1.84850       -1.74368       -4.69574
O         -1.93881        0.24940       -3.76274
H          0.50108       -0.77650        0.24036
H          0.75522        0.84883        0.88320
H          2.09941       -0.01229        0.11638
H         -0.44207        0.98341       -1.28275
H          1.12618        1.76189       -1.35621
H          0.78988        0.48467       -3.39047
H          2.13144       -0.17382       -2.47967
H          0.77947       -1.95760       -3.45720
H          0.81493       -2.06637       -1.71007
H         -1.44799       -2.56553       -2.43365
H         -1.53347       -0.97775       -1.65113
