30

C          1.09130        0.03983        0.00880
P          0.48130       -0.36446        1.68610
O         -0.70136       -1.09631        1.02914
O          1.71635       -1.45604        1.96305
C          2.66715       -1.89749        1.09126
C          2.46927       -3.09289        0.40708
C          3.41918       -3.51425       -0.52460
C          4.55930       -2.74261       -0.75989
C          4.77081       -1.56789       -0.03734
C          3.83535       -1.15776        0.91142
O         -0.09537       -0.74667        3.27174
C          0.58288       -0.28014        4.36480
C          0.65068       -1.13248        5.46399
C          1.33365       -0.73767        6.61296
C          1.93703        0.51952        6.66124
C          1.85047        1.37826        5.56532
C          1.16923        0.98336        4.41125
H          0.38402        0.75984       -0.42131
H          1.13266       -0.80640       -0.68267
H          2.04822        0.56513        0.04908
H          1.57302       -3.68241        0.58141
H          3.26651       -4.43908       -1.07523
H          5.28648       -3.06093       -1.50297
H          5.66066       -0.97069       -0.21824
H          4.00170       -0.24638        1.47732
H          0.18175       -2.11327        5.41867
H          1.39507       -1.40766        7.46546
H          2.46809        0.82941        7.55788
H          2.31037        2.36292        5.61576
H          1.09213        1.67687        3.58334
