12

F         -2.48877        2.34332        0.00818
C         -1.81014        1.18879        0.00275
C         -2.50743       -0.01188        0.01190
C         -1.79051       -1.20098        0.00589
F         -2.45008       -2.36647        0.01435
C         -0.39912       -1.20478       -0.00859
C          0.28202        0.01098       -0.01714
Br         2.17172        0.02649       -0.03554
C         -0.41900        1.21542       -0.01181
H         -3.59097       -0.02077        0.02353
H          0.13046       -2.15225       -0.01282
H          0.09494        2.17145       -0.01858
