35

C          0.86555       -0.09308        0.08445
C          0.70606       -1.60281        0.20045
N          1.20510       -2.09101        1.48604
C          0.20961       -2.49082        2.48181
C         -0.05747       -3.98807        2.44607
C          2.58494       -2.23955        1.62535
O          3.34727       -2.11291        0.66162
C          3.15445       -2.62796        2.99930
O          2.72130       -1.88155        4.12963
C          3.09741       -0.58274        4.13467
O          3.70338       -0.00326        3.24508
C          2.58048        0.11340        5.33475
C          2.16144        1.44277        5.16841
C          1.68716        2.17567        6.25720
C          1.63477        1.58805        7.51974
C          2.05801        0.26931        7.69799
C          2.53447       -0.46616        6.60886
O          2.98593       -1.73948        6.81693
H          0.35615        0.42029        0.90664
H          0.44577        0.26495       -0.86030
H          1.92102        0.19767        0.11697
H         -0.34837       -1.87837        0.08786
H          1.25437       -2.09329       -0.61167
H          0.53205       -2.20390        3.48240
H         -0.71935       -1.94121        2.29067
H          0.83260       -4.55907        2.72654
H         -0.85696       -4.24836        3.14654
H         -0.35691       -4.31329        1.44465
H          2.90619       -3.67867        3.17854
H          4.24978       -2.58162        2.94466
H          2.21010        1.91103        4.18647
H          1.36780        3.20621        6.12047
H          1.27398        2.16274        8.36980
H          2.02196       -0.16173        8.69446
H          2.88331       -1.97198        7.75425
