18

C          0.91127        0.13345       -0.23423
O          0.43227        0.63459       -1.48319
C          0.83000        1.89997       -1.75581
O          1.53196        2.60363       -1.04556
C          0.31173        2.37266       -3.05299
C         -0.46070        1.63408       -3.86236
C         -0.97897        2.10677       -5.15955
O         -1.68093        1.40311       -5.86980
O         -0.58124        3.37215       -5.43217
C         -1.06025        3.87329       -6.68112
H          0.53618       -0.88645       -0.11225
H          0.53423        0.74251        0.59338
H          2.00539        0.10328       -0.22732
H          0.61219        3.38464       -3.30261
H         -0.76116        0.62210       -3.61275
H         -0.68320        3.26423       -7.50874
H         -2.15437        3.90346       -6.68803
H         -0.68515        4.89319       -6.80311
