20

N          0.97960       -0.08117       -0.05474
P          0.38626        1.54607       -0.46516
N         -0.71339        0.65359       -1.35342
O         -0.15899        1.68024        0.95531
O         -0.19041        3.12760       -0.86406
C         -0.34478        3.56938       -2.15142
C          0.46337        4.61611       -2.58656
C          0.28729        5.14418       -3.86909
C         -0.69012        4.62390       -4.71740
C         -1.53067        3.61099       -4.26455
C         -1.38297        3.11817       -2.96788
H          0.19695       -0.67304       -0.31252
H          1.73672       -0.31705       -0.67990
H         -1.64406        0.90943       -1.04085
H         -0.65213        0.82681       -2.34729
H          1.20452        5.04957       -1.92147
H          0.90196        5.97697       -4.20288
H         -0.82170        5.03033       -5.71718
H         -2.31983        3.22774       -4.90684
H         -2.11759        2.40471       -2.60815
