27

C          0.71275       -0.15262        0.68829
N          0.39219       -1.54947        0.43940
C         -1.04915       -1.76783        0.40696
C          1.12713       -2.14816       -0.68358
C          0.54480       -1.89982       -2.04671
C         -0.10445       -2.85241       -2.81469
N         -0.49539       -2.27883       -3.99239
C         -0.12194       -0.95605       -4.01868
C         -0.34478        0.01597       -5.00278
C          0.15171        1.30099       -4.76925
C          0.87225        1.57982       -3.61311
Br         1.52697        3.33153       -3.32037
C          1.11115        0.59270       -2.65197
C          0.57278       -0.69871       -2.83493
H          0.39874        0.12848        1.69990
H          0.21554        0.52677       -0.00933
H          1.79369        0.02272        0.64558
H         -1.54020       -1.22885       -0.41141
H         -1.28333       -2.83359        0.31674
H         -1.50551       -1.42572        1.34333
H          2.17998       -1.84020       -0.66862
H          1.14982       -3.23318       -0.51135
H         -0.31885       -3.89467       -2.61514
H         -0.98785       -2.75075       -4.73573
H         -0.89445       -0.21036       -5.91042
H         -0.02907        2.07970       -5.50605
H          1.68902        0.82324       -1.76441
