36

C          1.58430       -0.04174        0.05356
C          1.09641       -1.00050       -1.04130
C          1.47054       -2.43106       -0.63428
C         -0.43305       -0.91776       -1.27918
C         -0.94368        0.48232       -1.69053
N         -1.16495        0.62319       -3.13718
C         -2.27956        0.52798       -3.91465
O         -2.12100        0.32164       -5.12000
C         -3.68060        0.68943       -3.32952
N         -4.08944       -0.51575       -2.63606
C         -5.13837       -0.65246       -1.77239
O         -5.35519       -1.77901       -1.32091
C         -5.92819        0.57629       -1.30034
N         -5.48713        1.00130        0.03140
C         -1.99550        1.09211       -0.75408
O         -2.21393        2.29263       -0.67670
O         -2.77712        0.21368       -0.09039
H          1.01501       -0.17459        0.97992
H          1.49852        1.00578       -0.24771
H          2.64200       -0.21587        0.27998
H          1.61618       -0.75966       -1.97643
H          0.99802       -2.70643        0.31606
H          1.15197       -3.15301       -1.39237
H          2.55402       -2.53042       -0.50831
H         -0.71725       -1.65233       -2.04370
H         -0.89500       -1.25363       -0.34514
H         -0.10540        1.17259       -1.54737
H         -0.33193        0.52491       -3.70795
H         -3.72837        1.56435       -2.67989
H         -4.38711        0.85564       -4.15080
H         -3.78255       -1.40299       -3.02242
H         -5.85098        1.40685       -2.00462
H         -6.98471        0.29334       -1.25424
H         -4.53067        1.36865       -0.02241
H         -5.40030        0.17391        0.62595
H         -2.75915       -0.71261       -0.40825
