8

Cl         0.94421       -0.14243        0.18428
C          2.72838       -0.06382        0.05285
C          3.24144        0.67860       -1.18845
Cl         2.71053        2.38918       -1.20147
Cl         5.04192        0.66370       -1.16355
Cl         2.71053       -0.11910       -2.70169
H          3.08489        0.41602        0.97104
H          3.08489       -1.09979        0.06443
