49

C          0.95053       -0.97791        0.10405
C          0.17343        0.31901        0.17529
C          1.05096        1.53872        0.01903
C         -1.19795        0.24951       -0.47816
C         -1.41740        1.15411       -1.64402
O         -1.22769        0.70845       -2.76007
O         -1.86693        2.40421       -1.35097
C         -2.41791        3.23683       -2.44363
C         -1.77396        3.07685       -3.81116
N         -1.23976        2.94414       -4.94564
C         -3.90496        2.89073       -2.52995
C         -4.89208        3.80442       -2.14181
C         -6.24127        3.43590       -2.17077
C         -6.61661        2.14220       -2.54700
C         -5.64964        1.21607       -2.92897
O         -6.09097       -0.03624       -3.30092
C         -5.29233       -1.14108       -3.08441
C         -5.38071       -2.17437       -4.01640
C         -4.61380       -3.33368       -3.85983
C         -3.76869       -3.47362       -2.76007
C         -3.70623       -2.46299       -1.80643
C         -4.47299       -1.30572       -1.96703
C         -4.31366        1.61524       -2.97845
C         -1.10050        0.53082        1.00924
C         -1.45730       -0.49343        2.09322
Br         0.06019       -0.44383        3.40485
C         -2.80192       -0.32336        2.84379
Br        -4.29875       -0.45228        1.56666
Br        -3.05602       -1.82496        4.13288
Br        -2.94639        1.39690        3.78887
H          0.32349       -1.85992        0.26749
H          1.40203       -1.08194       -0.88915
H          1.75938       -0.99246        0.84064
H          1.49221        1.56955       -0.98166
H          0.49726        2.46994        0.17811
H          1.86207        1.51232        0.75441
H         -1.56215       -0.74512       -0.72547
H         -2.28743        4.27558       -2.12026
H         -4.62840        4.81041       -1.82165
H         -7.00650        4.15625       -1.88967
H         -7.66640        1.86011       -2.54563
H         -6.04184       -2.07632       -4.87233
H         -4.67561       -4.12913       -4.59757
H         -3.16592       -4.37085       -2.64351
H         -3.06236       -2.58064       -0.94002
H         -4.42211       -0.52422       -1.22176
H         -3.57856        0.91220       -3.36517
H         -1.32912        1.54429        1.32270
H         -1.39845       -1.50688        1.67620
