14

N         -4.14373        0.01756       -0.17974
C         -2.75561        0.00941       -0.00329
C         -2.03628        1.20780       -0.03119
C         -0.63909        1.20460        0.01703
C          0.04612       -0.00686        0.04868
Br         1.93507       -0.01783        0.10707
C         -0.65307       -1.21023        0.01540
C         -2.05021       -1.19721       -0.03282
H         -4.59530        0.86246        0.15647
H         -4.60505       -0.82251        0.15533
H         -2.55971        2.15845       -0.09071
H         -0.10078        2.14822        0.01384
H         -0.12572       -2.16003        0.01093
H         -2.58461       -2.14165       -0.09362
