26

C          1.04111       -0.08343       -0.11170
C          0.55785        1.27881        0.44249
C          1.04110        2.36344       -0.55069
C         -0.98866        1.26673        0.37516
C          1.09021        1.54471        1.92456
C          0.60696        0.46009        2.91774
C          2.63671        1.55680        1.99189
C          0.60695        2.90695        2.47875
H          0.66526       -0.24688       -1.12928
H          0.68380       -0.92214        0.49306
H          2.13224       -0.13953       -0.16763
H          0.66525        2.16295       -1.56163
H          0.68379        3.36008       -0.27522
H          2.13223        2.39660       -0.62264
H         -1.42001        0.47727        0.99767
H         -1.42001        2.22336        0.68441
H         -1.33377        1.08284       -0.64980
H          0.96427       -0.53655        2.64226
H          0.98280        0.66058        3.92868
H         -0.48417        0.42692        2.98969
H          3.06807        2.34626        1.36937
H          2.98183        1.74069        3.01684
H          3.06807        0.60017        1.68264
H          0.96426        3.74567        1.87399
H         -0.48418        2.96305        2.53468
H          0.98280        3.07040        3.49633
