103

C          2.40433       -1.42178        0.56243
O          1.66099       -2.62045        0.32570
C          1.76380       -3.16710       -0.91472
O          2.59998       -2.83857       -1.74787
N          0.82440       -4.13602       -1.18585
C         -0.30937       -4.53157       -0.33307
C         -1.64039       -4.89603       -1.16056
O         -2.14097       -6.02721       -1.02729
N         -2.44666       -4.10849       -1.94700
C         -2.36822       -2.90931       -2.87386
C         -2.39064       -3.45616       -4.37000
C         -3.79024       -3.69403       -4.94072
C         -4.39995       -2.69335       -5.72721
C         -5.78464       -2.67293       -5.90445
C         -6.56397       -3.69765       -5.37814
C         -5.95330       -4.76742       -4.72419
C         -4.57085       -4.77403       -4.51410
C         -3.57439       -1.83178       -2.72576
O         -4.71608       -2.36487       -2.03354
C         -3.41434       -0.34427       -2.28750
N         -2.13370        0.28762       -2.53901
C         -2.14199        1.75981       -2.73635
C         -0.79602        2.41491       -2.41862
C          0.40559        1.89154       -2.91762
C          1.61561        2.17015       -2.27136
C          1.68183        3.04485       -1.17109
C          2.92470        3.16319       -0.36451
C          2.95820        3.72410        0.91526
C          4.15053        3.73064        1.63939
C          5.28803        3.16880        1.08166
C          5.18331        2.62186       -0.18282
N          4.04047        2.60653       -0.90595
C          0.49818        3.73155       -0.84643
C         -0.72442        3.42144       -1.45535
N         -1.10041       -0.15583       -1.70261
C         -1.22243       -0.84308       -0.54028
O         -0.63159       -1.91127       -0.57315
C         -1.87492       -0.37594        0.76812
N         -1.81056        1.08235        0.74769
C         -2.31055        2.01615        1.58430
O         -1.92001        3.17800        1.55347
O         -3.31058        1.56028        2.35277
C         -4.19090        2.55715        2.85321
C         -3.12527       -1.17434        1.34419
C         -3.21285       -2.63689        0.87098
C         -2.92910       -1.33259        2.87825
C         -4.51221       -0.56763        1.02568
C          0.12695       -5.60760        0.76303
C          1.35355       -5.14915        1.60128
C         -0.99457       -5.80845        1.81205
C          0.50498       -6.94772        0.12083
H          1.98343       -0.94345        1.45420
H          2.30147       -0.71970       -0.27045
H          3.45456       -1.65196        0.75867
H          0.91792       -4.55863       -2.09615
H         -0.57845       -3.69868        0.30456
H         -3.21236       -4.71871       -2.20078
H         -1.38503       -2.46657       -2.74789
H         -1.88385       -2.71647       -5.00401
H         -1.80738       -4.38127       -4.44696
H         -3.82161       -1.84208       -6.08455
H         -6.25858       -1.82884       -6.40042
H         -7.64666       -3.65862       -5.46968
H         -6.56508       -5.57824       -4.33644
H         -4.12816       -5.60004       -3.96404
H         -3.93376       -1.63988       -3.72796
H         -4.61588       -3.32814       -1.97881
H         -4.19683        0.21309       -2.83017
H         -3.71375       -0.20989       -1.25578
H         -2.39690        1.98328       -3.77940
H         -2.91724        2.21514       -2.10652
H          0.39441        1.13947       -3.70426
H          2.50661        1.62763       -2.58841
H          2.06946        4.13539        1.38062
H          4.18132        4.16312        2.63554
H          6.22880        3.15227        1.61969
H          6.04046        2.16017       -0.66477
H          0.47861        4.47688       -0.05528
H         -1.62834        3.89823       -1.08023
H         -0.38410       -0.63094       -2.25552
H         -1.06379       -0.61730        1.47494
H         -1.02106        1.45580        0.23042
H         -3.80414        2.94771        3.79491
H         -4.34505        3.35699        2.12169
H         -5.15745        2.07662        3.02911
H         -2.36470       -3.23103        1.20298
H         -4.11235       -3.13540        1.25642
H         -3.26681       -2.68311       -0.20513
H         -2.63674       -0.40685        3.37220
H         -3.83638       -1.71002        3.36155
H         -2.12943       -2.05519        3.09233
H         -4.46937        0.46021        0.66405
H         -5.03730       -1.13018        0.24459
H         -5.17193       -0.59198        1.89892
H          1.15500       -4.20481        2.12165
H          1.59614       -5.88219        2.38114
H          2.25646       -5.04177        0.99309
H         -1.92777       -6.17101        1.37839
H         -0.69053       -6.53337        2.57687
H         -1.21174       -4.87015        2.33774
H         -0.35843       -7.45855       -0.30910
H          1.24995       -6.80789       -0.66909
H          0.93895       -7.62685        0.86366
