18

O          1.02533       -0.04390       -0.03144
S          2.46921        0.04213        0.06032
O          3.13362       -0.29198        1.30201
O          3.01661       -1.00797       -1.04377
C          3.06429        1.62472       -0.63864
F          2.60810        1.78812       -1.91791
F          2.55387        2.67708        0.07040
C          4.57464        1.65003       -0.60608
F          5.03833        1.49015        0.66143
F          5.09296        0.62412       -1.33238
C          5.07644        2.96287       -1.15665
F          4.61167        3.16346       -2.42210
F          4.60002        4.00312       -0.41543
C          6.59318        2.97458       -1.15463
F          7.10924        2.81651        0.08563
F          7.11430        1.99768       -1.93293
F          7.07472        4.14994       -1.63124
H          2.55459       -1.86513       -0.91484
