26

C          1.16440        0.18502       -0.02252
C          0.67704       -0.71858       -1.17247
C          1.35159       -2.08186       -0.99468
C         -0.88049       -0.78454       -1.21714
C         -1.40991        0.63926       -1.30622
O         -1.42242        1.34391       -2.30025
O         -1.85848        1.11128       -0.12832
C         -1.52198       -1.57214       -2.39579
C         -1.25180       -3.07516       -2.42651
C         -3.03353       -1.41367       -2.40158
O         -3.73184       -1.21537       -3.37930
O         -3.59626       -1.61778       -1.19498
H          0.76279       -0.15094        0.93982
H          0.86968        1.22783       -0.17432
H          2.25782        0.17825        0.04754
H          1.04258       -0.27745       -2.10911
H          0.84044       -2.68731       -0.23938
H          1.38373       -2.63408       -1.93488
H          2.39621       -1.97334       -0.68152
H         -1.23812       -1.21755       -0.27275
H         -2.12396        2.03415       -0.32655
H         -1.17046       -1.13649       -3.34103
H         -1.25275       -3.50493       -1.41975
H         -2.01219       -3.60927       -3.00893
H         -0.29641       -3.29543       -2.90705
H         -4.55953       -1.54973       -1.36713
