22

C          1.41501        0.29294        0.17266
C          0.89676        0.97512       -1.08316
C          0.98595        0.11775       -2.34925
C          0.40608       -1.30674       -2.30435
N         -1.05159       -1.43188       -2.48112
C         -1.39945       -2.84446       -2.67926
C         -1.81839       -0.90249       -1.35564
H          0.78488       -0.55283        0.46156
H          1.41580        0.99953        1.00906
H          2.43867       -0.06691        0.03185
H         -0.12392        1.32424       -0.91383
H          1.49111        1.88259       -1.25030
H          0.53611        0.66934       -3.18477
H          2.05154        0.02348       -2.60000
H          0.87739       -1.83038       -3.14846
H          0.74245       -1.83783       -1.40608
H         -1.13255       -3.45943       -1.81180
H         -2.47343       -2.95692       -2.86512
H         -0.89030       -3.24946       -3.56124
H         -1.46584       -1.28588       -0.39215
H         -1.79103        0.18841       -1.34487
H         -2.88037       -1.15852       -1.45081
