23

Cl        -2.93640        0.03804        0.14363
C         -1.31740       -0.56123        0.02217
C         -1.13261       -1.92646        0.22513
C          0.14721       -2.46907        0.15572
C          1.26415       -1.66727       -0.13189
O          2.42066       -2.42218       -0.16276
C          3.65787       -1.84712       -0.02240
C          4.08987       -1.23819        1.16282
Cl         3.09731       -1.16583        2.57445
C          5.36712       -0.66900        1.23195
C          6.22963       -0.74031        0.13676
C          5.82749       -1.39966       -1.02314
C          4.55038       -1.96010       -1.09827
Cl         4.10039       -2.77692       -2.55366
C          1.07507       -0.29483       -0.39246
Cl         2.37397        0.73394       -0.92331
C         -0.22162        0.26211       -0.28281
Cl        -0.48071        1.96906       -0.52615
H         -1.97946       -2.57482        0.43980
H          0.27963       -3.53787        0.32193
H          5.69718       -0.16748        2.13887
H          7.21890       -0.29049        0.19086
H          6.50858       -1.47093       -1.86775
