24

C          0.87298       -0.07285       -0.39440
C          0.53303       -1.02229        0.74479
C          1.08329       -0.56125        2.09644
C          0.48048        0.73885        2.63849
C         -1.02404        0.70566        2.93010
C         -1.50868       -0.37647        3.89729
O         -1.27694       -0.05630        5.26696
C          0.00708       -0.41708        5.74992
H          0.37388        0.89297       -0.27530
H          0.54925       -0.49909       -1.34935
H          1.95263        0.09994       -0.45146
H         -0.55156       -1.16487        0.79563
H          0.96474       -2.00382        0.51452
H          0.94478       -1.36649        2.82617
H          2.16855       -0.42597        2.00681
H          1.02391        1.02296        3.54377
H          0.67305        1.55130        1.92731
H         -1.31070        1.68728        3.32701
H         -1.55771        0.58341        1.98019
H         -2.59938       -0.43418        3.79715
H         -1.13315       -1.37456        3.65226
H          0.35248       -1.36683        5.33198
H          0.72587        0.37730        5.54182
H         -0.05724       -0.52327        6.83686
