43

O          0.25918        0.22754       -0.14650
C          1.47734        0.17176       -0.07763
O          2.14106        0.53661        1.04862
C          2.38731       -0.35812       -1.17820
O          2.02340        0.16141       -2.45233
C          2.17212       -0.91014       -3.38332
C          0.87498       -1.02535       -4.15062
C          0.14269       -2.21830       -4.21289
C         -1.08762       -2.26046       -4.87023
C         -1.59301       -1.11634       -5.48535
C         -0.86410        0.06939       -5.45781
C          0.36331        0.11314       -4.79902
O          2.52891       -2.11613       -2.70093
C          2.26661       -1.86416       -1.31127
C          3.14997       -2.78767       -0.43751
C          3.19800       -2.43345        1.02520
O          4.19755       -1.40672        1.06950
C          5.17983       -1.83177        0.09409
C          5.68022       -0.62644       -0.67788
C          5.81743       -0.67747       -2.07813
C          6.03188        0.48525       -2.81644
C          6.15243        1.70850       -2.16364
C          6.10578        1.76436       -0.77132
C          5.88963        0.60176       -0.02890
O          4.53824       -2.75027       -0.80201
H          3.11058        0.38082        1.02114
H          3.38666        0.00930       -1.01153
H          2.98233       -0.66838       -4.08145
H          0.51536       -3.11954       -3.73185
H         -1.65819       -3.18479       -4.88950
H         -2.55959       -1.14691       -5.97995
H         -1.25708        0.96514       -5.93074
H          0.91298        1.05246       -4.76035
H          1.22300       -2.15835       -1.13551
H          2.80545       -3.81736       -0.58521
H          3.55627       -3.27450        1.63002
H          2.24897       -2.08659        1.43981
H          6.00864       -2.33696        0.60224
H          5.67813       -1.61725       -2.61224
H          6.06883        0.43771       -3.90194
H          6.27917        2.62005       -2.74210
H          6.20788        2.72173       -0.26616
H          5.82076        0.67070        1.05514
