39

C          0.75371        0.17202       -0.19952
C          0.40777        1.18497        0.83989
O         -0.51867        1.96782        0.65854
N          1.13660        1.31564        2.02735
S          2.23948        0.42836        2.88147
O          3.44827        1.21692        2.96457
O          1.54614        0.03187        4.09109
C          2.65129       -1.04745        2.00559
C          2.23790       -2.28889        2.48540
C          2.53542       -3.44203        1.75624
C          3.16654       -3.35376        0.51520
N          3.25141       -4.40877       -0.40980
C          2.50853       -5.56035       -0.57079
O          2.80329       -6.35389       -1.46468
C          1.38047       -5.90382        0.31420
C          1.54161       -7.07851        1.06807
C          0.61073       -7.41953        2.04850
C         -0.48871       -6.59591        2.27771
C         -0.68290       -5.45492        1.49561
C          0.23360       -5.11381        0.48561
C         -0.05794       -3.88537       -0.28251
O         -0.74883       -2.95836        0.11133
O          0.45794       -3.88917       -1.51760
C          3.71550       -2.12596        0.12749
C          3.48155       -0.97541        0.88505
H          0.02530        0.23057       -1.01566
H          0.69369       -0.83256        0.21303
H          1.73630        0.38487       -0.62223
H          0.66090        1.95661        2.66156
H          1.68309       -2.37838        3.41770
H          2.24672       -4.39460        2.18660
H          3.87116       -4.27613       -1.20195
H          2.41227       -7.71283        0.90755
H          0.75419       -8.31823        2.64428
H         -1.19969       -6.84413        3.06301
H         -1.55086       -4.82405        1.68464
H          0.14545       -3.05363       -1.92252
H          4.28082       -2.03596       -0.79763
H          3.89315       -0.02151        0.56105
