23

C          0.46632        0.47406       -0.27702
C          0.21593        1.09663        1.08760
O          1.32937        1.80062        1.62504
C          2.58259        1.12000        1.69805
C          2.79897        0.29780        2.97413
O          2.76099       -1.11887        2.79751
C          1.48270       -1.74962        2.76310
C          0.71328       -1.70782        4.08620
O          0.06704       -0.45616        4.29359
H          0.88905        1.21147       -0.96628
H         -0.46330        0.08221       -0.69972
H          1.17317       -0.35919       -0.21850
H         -0.58889        1.83271        0.98095
H         -0.15478        0.36605        1.80679
H          2.80651        0.55603        0.79043
H          3.31003        1.94029        1.73300
H          3.83409        0.48305        3.28729
H          2.17275        0.62926        3.80150
H          0.89719       -1.36735        1.93024
H          1.68476       -2.80218        2.53481
H         -0.08082       -2.46045        4.06612
H          1.37216       -1.91425        4.93512
H          0.56655        0.01846        4.98315
