36

C          1.43462       -0.07932       -0.39283
C          0.58172       -1.34222       -0.28523
N          1.08887       -2.14801        0.86510
N          2.17806       -2.70260        0.59490
C          2.62539       -3.56953        1.56873
O          1.91505       -4.25230        2.30818
N          3.99048       -3.79059        1.60572
C          5.01284       -3.04591        0.99354
C          4.90047       -1.67609        0.74087
C          5.94564       -0.99202        0.12440
F          5.82300        0.32163       -0.10613
C          7.11029       -1.64414       -0.24629
C          7.22916       -2.99675        0.03587
F          8.34788       -3.64437       -0.31448
C          6.20415       -3.69933        0.66927
C         -0.93909       -1.25519       -0.25731
N         -1.52402       -2.49375       -0.36378
C         -2.86878       -2.59887       -0.41625
C         -3.71378       -1.51304       -0.39998
C         -3.13835       -0.25374       -0.30839
C         -1.73953       -0.10962       -0.23078
C         -1.24958        1.27000       -0.08104
O         -0.50283        1.69759        0.77382
O         -1.78496        2.07133       -1.02226
H          1.50165        0.44412        0.56536
H          1.07477        0.59918       -1.17036
H          2.46437       -0.34122       -0.66292
H          0.78968       -1.90744       -1.20817
H          4.22270       -4.66480        2.05876
H          4.03352       -1.10239        1.05132
H          7.91261       -1.10604       -0.73644
H          6.34126       -4.75956        0.85874
H         -3.25252       -3.61324       -0.47698
H         -4.78885       -1.63974       -0.45152
H         -3.78268        0.62305       -0.28919
H         -1.44010        2.96517       -0.81312
