57

C          0.99518       -0.05541        0.31792
N          0.64149        1.30457        0.69096
C         -0.16996        2.03868       -0.18386
C         -0.13665        3.43574       -0.11974
C         -0.92621        4.22029       -0.96726
C         -1.81199        3.63332       -1.89057
C         -2.58639        4.53844       -2.88358
O         -3.19646        5.59479       -2.11099
C         -1.58569        5.18428       -3.86998
C         -1.56528        6.56002       -4.12317
C         -0.69702        7.11093       -5.08274
C          0.18439        6.32610       -5.84510
N          0.97649        6.86650       -6.86384
C          1.34227        8.28039       -6.81908
C          1.91744        6.00016       -7.57106
C          0.16464        4.95046       -5.56418
C         -0.68390        4.39131       -4.59719
C         -3.78536        3.85702       -3.58508
C         -3.90666        3.75627       -4.97709
C         -4.97906        3.07558       -5.57985
C         -5.99627        2.46024       -4.83777
N         -7.05947        1.77878       -5.44371
C         -6.93733        1.35172       -6.83769
C         -7.89965        0.91918       -4.61029
C         -5.90345        2.62485       -3.44610
C         -4.83396        3.30290       -2.83282
C         -1.88540        2.23192       -1.90934
C         -1.09765        1.45363       -1.04933
H          1.28577       -0.12775       -0.73616
H          0.16828       -0.74322        0.52014
H          1.85129       -0.38225        0.91691
H          1.45058        1.84672        0.98494
H          0.53375        3.93433        0.57583
H         -0.82139        5.30405       -0.92339
H         -3.29817        5.25868       -1.20690
H         -2.24518        7.22600       -3.59502
H         -0.76825        8.18276       -5.23571
H          2.04396        8.47356       -6.00086
H          1.82719        8.58202       -7.75505
H          0.47379        8.93759       -6.72008
H          2.67757        5.60166       -6.89004
H          1.39534        5.17353       -8.06596
H          2.43971        6.54606       -8.36476
H          0.80606        4.25909       -6.10162
H         -0.65581        3.31349       -4.44878
H         -3.17733        4.20982       -5.64413
H         -4.98267        3.05699       -6.66475
H         -6.20744        0.54036       -6.93347
H         -7.89981        0.98389       -7.21222
H         -6.66377        2.17312       -7.50660
H         -7.30132        0.15613       -4.09956
H         -8.45642        1.50769       -3.87357
H         -8.65122        0.39524       -5.21190
H         -6.66748        2.22576       -2.78591
H         -4.82786        3.37812       -1.74733
H         -2.54378        1.71231       -2.60212
H         -1.21521        0.37447       -1.08921
