31

N          0.97677        0.06104        0.26850
C          0.31923        1.20657        0.69556
N          0.77136        2.40264        0.26364
C          0.14212        3.50739        0.70935
Cl         0.77216        4.99400        0.14177
N         -0.90533        3.61426        1.55204
C         -1.33057        2.39787        1.92932
C         -0.79441        1.17475        1.55433
N         -1.49264        0.13594        2.13138
C         -2.42754        0.71817        2.85244
N         -2.35646        2.08583        2.78002
C         -3.19313        3.00095        3.52307
C         -2.44945        3.95498        4.43961
C         -3.44901        5.07855        4.57246
O         -2.85439        6.28550        5.00677
C         -4.11599        5.12426        3.19522
C         -3.54424        6.15847        2.22557
O         -4.24532        6.08925        0.98370
O         -3.96024        3.80478        2.60889
H          0.42355       -0.78545        0.34413
H          1.50859        0.20440       -0.57998
H         -3.16962        0.19990        3.44747
H         -3.91122        2.40705        4.10246
H         -2.18789        3.49929        5.40002
H         -1.51493        4.32686        4.00582
H         -4.20198        4.79674        5.31868
H         -2.03065        6.44264        4.51132
H         -5.19367        5.29623        3.29970
H         -3.65425        7.17405        2.61677
H         -2.48697        5.97206        2.01575
H         -4.23393        5.14800        0.72397
