14

Br         0.92986       -0.28148        0.06332
C          2.86788       -0.14809       -0.02974
C          3.30426        0.97471       -0.95852
C          2.94414        2.40195       -0.51474
C          3.38053        2.80024        0.88688
Br         5.31855        2.85731        1.03920
H          3.23612       -0.02873        0.99135
H          3.21178       -1.11433       -0.41062
H          4.39075        0.90587       -1.08892
H          2.87501        0.81155       -1.95563
H          3.37340        3.10174       -1.24361
H          1.85766        2.53261       -0.58316
H          3.03663        3.81206        1.12104
H          3.01227        2.12291        1.66033
