23

O          0.98563       -0.19363        0.03859
C          2.20574       -0.11723        0.00675
O          2.97260       -1.17660       -0.35304
C          3.00085        1.12282        0.35881
C          2.82008        2.25213       -0.60495
C          2.49571        2.18193       -1.94715
N          2.42609        3.45567       -2.44519
C          2.73342        4.36760       -1.46376
C          2.80217        5.76589       -1.52025
C          3.14092        6.44864       -0.34758
C          3.39566        5.74681        0.82473
O          3.72704        6.39649        1.97963
C          3.32378        4.35446        0.87243
C          2.98429        3.64396       -0.29734
H          3.93025       -0.99222       -0.37135
H          2.69399        1.41833        1.36899
H          4.06804        0.88132        0.42372
H          2.28057        1.33636       -2.58858
H          2.18315        3.69639       -3.39631
H          2.59929        6.30647       -2.43912
H          3.19943        7.53273       -0.37271
H          3.70599        7.35282        1.81265
H          3.52366        3.83512        1.80395
