28

O          0.95907        0.11613       -0.13856
C          2.17625        0.03566       -0.13003
O          2.90478       -0.18300        0.98569
C          3.00492        0.23596       -1.34095
C          4.09912       -0.61707       -1.57090
C          4.91656       -0.41831       -2.68101
C          4.64714        0.62889       -3.55552
C          3.55080        1.46707       -3.33221
C          2.67837        1.26446       -2.24944
N          1.62765        2.17868       -1.97655
C          1.07461        3.14148       -2.84701
C          0.83680        4.42933       -2.35165
C          0.30771        5.42392       -3.17616
C         -0.02670        5.12537       -4.49472
C          0.14174        3.82959       -4.96779
O         -0.22083        3.57496       -6.25830
C          0.66904        2.83118       -4.15080
H          3.86082       -0.01438        0.88104
H          4.31322       -1.44380       -0.89739
H          5.76744       -1.07090       -2.86161
H          5.29206        0.80546       -4.41349
H          3.39326        2.29620       -4.01844
H          0.89807        1.75472       -1.38938
H          1.10329        4.67003       -1.32517
H          0.16555        6.42995       -2.79157
H         -0.42541        5.89650       -5.14741
H         -0.07606        2.63197       -6.43998
H          0.78319        1.81762       -4.52104
