21

C          1.17495       -0.28438        0.06358
N          0.71922       -1.58492       -0.41734
C         -0.53605       -2.05151        0.17439
C          0.90212       -1.91539       -1.72591
N          0.10753       -2.63345       -2.49578
C          0.73997       -2.70779       -3.71217
C          0.40950       -3.30953       -4.92082
N          1.26550       -3.20880       -5.97213
C          2.41510       -2.52044       -5.78658
N          2.84307       -1.89771       -4.66837
C          1.94833       -2.03723       -3.67762
N          2.03973       -1.55160       -2.40820
H          1.01249       -0.19037        1.14314
H          0.63204        0.52706       -0.43381
H          2.24860       -0.14730       -0.10244
H         -1.38966       -1.49544       -0.22946
H         -0.68888       -3.12152       -0.00863
H         -0.52233       -1.91619        1.26157
H         -0.50686       -3.86379       -5.07395
H          3.07617       -2.46240       -6.64664
H          2.82360       -1.04588       -2.03434
