68

C          1.12865        0.37574        0.31312
C          0.92136        0.71379       -1.15565
C          1.43163       -0.37231       -2.10732
C          0.82738       -1.76229       -1.88967
C         -0.69947       -1.80659       -1.95961
C         -1.26730       -1.54198       -3.35655
C         -1.01757       -2.67902       -4.35638
C         -1.69228       -3.99608       -3.97523
O         -3.10696       -3.78759       -4.01243
C         -3.77062       -3.60875       -2.84652
O         -3.31520       -3.80803       -1.72894
C         -5.17501       -3.11088       -3.09036
C         -5.47249       -2.64621       -4.52170
C         -5.43146       -3.71471       -5.63564
C         -5.72894       -5.16415       -5.23096
C         -7.13334       -5.42851       -4.74368
O         -7.58875       -6.55340       -4.59110
O         -7.79700       -4.27105       -4.51645
C         -9.21168       -4.31690       -4.30970
C         -9.88638       -3.88125       -5.60974
C         -9.63666       -4.83288       -6.78743
C        -10.20448       -6.23962       -6.58120
C        -11.73134       -6.30766       -6.62837
C        -12.33559       -6.03233       -8.00808
C        -11.82532       -6.93796       -9.13286
C        -12.03261       -8.41953       -8.85625
H          0.53957       -0.49592        0.61437
H          0.81539        1.21540        0.94098
H          2.18279        0.16792        0.52092
H         -0.14061        0.91302       -1.33824
H          1.44917        1.64776       -1.38047
H          1.25021       -0.04880       -3.13892
H          2.52055       -0.45227       -2.00367
H          1.25600       -2.45371       -2.62404
H          1.14210       -2.14438       -0.91159
H         -1.02329       -2.78429       -1.59350
H         -1.13380       -1.08488       -1.25982
H         -2.34494       -1.36009       -3.26966
H         -0.85326       -0.61353       -3.76423
H         -1.42076       -2.35332       -5.32460
H          0.05507       -2.84020       -4.49703
H         -1.46502       -4.75254       -4.73384
H         -1.35013       -4.39491       -3.01614
H         -5.87112       -3.89078       -2.77058
H         -5.32094       -2.24853       -2.42807
H         -6.46559       -2.17911       -4.52357
H         -4.78073       -1.83877       -4.79623
H         -6.12322       -3.40680       -6.43096
H         -4.43836       -3.69340       -6.10227
H         -5.58302       -5.78997       -6.12014
H         -5.03283       -5.51613       -4.46505
H         -9.55382       -5.29176       -3.95114
H         -9.43894       -3.59044       -3.52231
H        -10.95902       -3.74743       -5.44285
H         -9.48319       -2.90032       -5.89485
H        -10.05070       -4.38690       -7.69809
H         -8.55902       -4.91212       -6.97277
H         -9.77016       -6.90876       -7.33141
H         -9.88067       -6.64612       -5.61959
H        -12.04605       -7.30080       -6.28733
H        -12.15995       -5.60271       -5.90698
H        -13.42451       -6.13922       -7.93251
H        -12.15417       -4.98816       -8.28836
H        -12.35312       -6.67445      -10.05666
H        -10.76335       -6.74723       -9.32432
H        -13.08675       -8.63580       -8.65726
H        -11.71934       -9.01189       -9.72132
H        -11.44352       -8.75681       -7.99789
