58

C          2.85108       -0.07822       -0.07936
C          1.35716       -0.07536       -0.09905
C          0.65272        1.11752       -0.17745
N         -0.69346        1.17477       -0.13293
C         -1.33296       -0.01282        0.01067
C         -2.80571       -0.01476        0.22350
O         -3.43354       -1.07363        0.18797
N         -3.49275        1.14698        0.49806
C         -3.08532        2.54380        0.31479
C         -3.11115        3.00406       -1.16768
C         -4.55315        3.09377       -1.60119
C         -5.26390        4.26417       -1.56550
C         -6.68542        4.25144       -1.40310
C         -7.62663        3.07891       -1.13669
S         -9.91130        3.07684       -0.19564
O         -9.95628        2.98336        1.26554
O        -10.78144        4.16142       -0.65972
N        -11.06161        1.91116       -0.55719
C        -11.02972        0.58594       -0.84482
O        -11.96580       -0.16861       -0.66326
N         -9.88790        0.26115       -1.42100
C         -8.89859        1.27588       -1.45610
C         -9.31296        2.83933       -2.52076
C         -9.02432        4.63208       -1.86057
C         -8.45446        4.87649        0.01886
C         -7.75422        3.34049        0.98931
C         -8.20788        1.54116        0.37354
C         -6.65791        1.93862       -1.39857
C         -5.28015        1.94418       -1.73343
C         -0.63962       -1.21289        0.04149
N          0.71764       -1.26910       -0.01389
H          3.20700       -0.61334        0.80613
H          3.23619       -0.56610       -0.97821
H          3.25112        0.94047       -0.03853
H          1.15249        2.07699       -0.25511
H         -4.48355        0.98440        0.63205
H         -3.79745        3.13570        0.90400
H         -2.10940        2.70769        0.77178
H         -2.63096        3.98506       -1.25513
H         -2.56753        2.31087       -1.81919
H         -4.74544        5.22296       -1.54875
H         -6.95353        5.30996       -1.43023
H        -11.95587        2.23073       -0.19339
H         -9.71984       -0.71671       -1.62670
H         -8.24813        0.72798       -2.15285
H         -8.67706        2.75978       -3.41701
H        -10.35412        2.76904       -2.86343
H         -9.90080        5.26963       -2.07188
H         -8.35331        5.09811       -2.60174
H         -9.30396        5.28193        0.59754
H         -7.75229        5.71688        0.14560
H         -8.01108        3.44776        2.05467
H         -6.65347        3.41325        0.99366
H         -8.93805        1.08828        1.06515
H         -7.33332        0.90605        0.59196
H         -6.82380        0.86900       -1.22909
H         -4.76898        0.98554       -1.84044
H         -1.14730       -2.16702        0.14199
