34

C          2.41413        0.02231        0.02422
C          0.91400        0.05907        0.04414
C          0.18969       -1.13818        0.03117
C         -1.20662       -1.11919        0.02735
C         -1.90021        0.09845        0.03845
C         -3.38526        0.05211       -0.03198
O         -4.01172       -0.99036       -0.16177
O         -3.90441        1.30895        0.00462
O         -5.32648        1.17479       -0.31946
C         -5.90496        2.38503       -0.11228
O         -6.80340        2.56006        0.70078
C         -5.47557        3.46120       -1.05833
C         -6.07704        4.72103       -0.92488
C         -5.73418        5.76873       -1.78382
C         -4.77319        5.57993       -2.78255
C         -4.41926        6.70938       -3.70486
C         -4.18447        4.31949       -2.92985
C         -4.54133        3.26377       -2.08353
C         -1.17738        1.29850        0.06389
C          0.22154        1.27558        0.06569
H          2.79044       -0.51846        0.89837
H          2.76544       -0.47505       -0.88583
H          2.84130        1.03021        0.04182
H          0.70898       -2.09457        0.01490
H         -1.75092       -2.06226        0.00411
H         -6.83027        4.89180       -0.15683
H         -6.22624        6.73279       -1.66972
H         -5.25726        6.92303       -4.37574
H         -4.18056        7.60948       -3.12887
H         -3.54364        6.46735       -4.31615
H         -3.44766        4.14607       -3.71194
H         -4.08078        2.29497       -2.25299
H         -1.67891        2.26287        0.07031
H          0.76739        2.21717        0.07637
