22

C          1.00905       -0.32236        0.17355
C          0.53524       -1.30229       -0.86532
O         -0.17567       -2.25888       -0.54732
N          0.81798       -1.09897       -2.18525
C          1.71675       -0.22340       -2.81464
C          2.88882        0.24286       -2.21938
C          3.73656        1.10917       -2.91380
C          3.41538        1.52041       -4.20621
C          2.25557        1.04725       -4.82569
C          1.87961        1.49613       -6.20661
C          1.42744        0.15234       -4.13193
H          0.29431       -0.31867        1.00308
H          1.03642        0.69601       -0.22246
H          1.98619       -0.62007        0.55809
H          0.23610       -1.66955       -2.78803
H          3.20033       -0.08955       -1.23583
H          4.65369        1.45915       -2.44617
H          4.07974        2.20697       -4.72616
H          1.84109        0.63977       -6.88671
H          0.90018        1.98570       -6.18664
H          2.60258        2.21485       -6.60607
H          0.52465       -0.21398       -4.61650
