23

Cl        -2.62350        0.95917        0.30914
C         -1.18666        0.02127        0.18985
C         -1.24937       -1.36145        0.35004
C         -0.08613       -2.13190        0.25227
C          1.14431       -1.51814       -0.01733
O          2.34494       -2.19057       -0.14598
C          2.34750       -3.56343       -0.11033
C          2.08204       -4.31395       -1.26334
Cl         1.67820       -3.55931       -2.76272
C          2.14056       -5.70810       -1.22301
C          2.49054       -6.34861       -0.03606
Cl         2.56616       -8.06642        0.01280
C          2.78710       -5.61348        1.10950
C          2.72244       -4.22006        1.06869
Cl         3.10911       -3.34053        2.50295
C          1.19017       -0.12153       -0.16682
Cl         2.67936        0.69861       -0.48353
C          0.02906        0.64784       -0.06434
H         -2.20155       -1.84762        0.55073
H         -0.17525       -3.20505        0.38828
H          1.92358       -6.29159       -2.11462
H          3.07356       -6.12229        2.02681
H          0.07432        1.72679       -0.18379
