51

C          0.38200       -0.43807        0.05485
O          0.38042        0.98268       -0.07612
C          0.87199        1.59306        1.04694
C         -0.05561        2.23483        1.85052
C          0.31686        2.87528        3.05138
C          1.69502        3.01946        3.35683
C          2.62778        2.24612        2.58101
O          3.88353        2.12134        3.13938
C          4.98909        1.84032        2.29770
C          2.21935        1.57125        1.40899
O          3.09707        0.78178        0.70968
C          3.30314        1.20502       -0.63890
C          2.21813        4.04496        4.34209
C          3.22556        4.86321        3.93997
C          4.54086        4.52397        4.48991
C          4.81005        4.28687        5.78594
O          6.09511        3.89534        6.15552
C          3.82521        4.46540        6.92305
O          4.23756        4.55006        8.08358
C          2.35049        4.62901        6.71605
C          1.61036        4.47882        5.59722
C          0.15936        4.89183        5.56026
N         -0.05866        5.77991        4.43411
C         -0.16398        7.04082        4.39966
C         -0.09766        8.02806        5.50825
O         -0.33408        7.58781        3.18170
C         -0.70254        3.64974        5.34566
C         -0.88161        3.31259        3.86838
H          0.92389       -0.85853       -0.79697
H          0.83454       -0.80467        0.98332
H         -0.65417       -0.78572        0.01173
H         -1.10384        2.20767        1.55443
H          5.04283        0.77515        2.05910
H          4.98829        2.47173        1.40467
H          5.89766        2.08192        2.85860
H          4.24002        1.76645       -0.69540
H          2.50177        1.82062       -1.05768
H          3.41218        0.30705       -1.25468
H          3.12995        5.92444        4.21488
H          5.31255        4.41979        3.73373
H          6.58534        3.65005        5.35517
H          1.86356        4.93601        7.63927
H         -0.13282        5.35179        6.51175
H          0.85426        8.56237        5.45098
H         -0.91751        8.74468        5.39407
H         -0.19131        7.55340        6.48444
H         -0.37626        8.55399        3.19061
H         -1.69957        3.84418        5.76334
H         -0.30996        2.78225        5.89402
H         -1.60340        2.48228        3.85042
H         -1.38621        4.13379        3.34206
