41

C          1.05398       -0.19425        0.39837
C          0.53305        1.14798       -0.12149
C          0.95530        1.36353       -1.59541
C          0.56881        0.28556       -2.62312
C         -0.91232        0.16582       -2.99239
C         -1.54978        1.46121       -3.50411
C         -1.10638        1.83249       -4.92175
C         -1.61670        0.87169       -6.00296
C         -3.14342        0.82376       -6.15398
C         -3.78558        2.15350       -6.53938
C         -3.41975        2.55613       -7.93930
O         -4.05674        2.30828       -8.94894
O         -2.24276        3.20500       -8.00957
C         -0.97329        1.33484        0.10654
C         -1.38857        1.33788        1.55233
O         -1.63774        2.31594        2.23191
O         -1.51566        0.09364        2.05523
H          0.47833       -1.03385       -0.00330
H          1.00343       -0.23899        1.49039
H          2.10509       -0.33569        0.12304
H          1.04403        1.92896        0.45941
H          0.62275        2.35134       -1.93250
H          2.05330        1.42133       -1.60805
H          1.13387        0.48653       -3.54210
H          0.92139       -0.69447       -2.28205
H         -1.01519       -0.62590       -3.74189
H         -1.48374       -0.21093       -2.14403
H         -2.63973        1.36148       -3.46693
H         -1.32137        2.29473       -2.83274
H         -1.44071        2.85217       -5.14187
H         -0.01203        1.86817       -4.96966
H         -1.16020        1.14691       -6.95983
H         -1.25765       -0.14315       -5.80094
H         -3.38733        0.07178       -6.91466
H         -3.59716        0.46658       -5.22258
H         -4.87744        2.05715       -6.50436
H         -3.53838        2.96216       -5.84452
H         -2.09688        3.33288       -8.97006
H         -1.30109        2.28958       -0.32286
H         -1.57102        0.56085       -0.37264
H         -1.82001        0.23184        2.97572
