35

C          0.50293       -0.20584       -0.10597
C          0.68156        0.19301       -1.56787
N          1.05535       -0.96266       -2.40300
C          0.56215       -0.97120       -3.72274
C          0.43660        0.21517       -4.47418
C         -0.01494        0.20077       -5.79706
C         -0.35373       -1.00315       -6.39987
C         -0.23683       -2.18731       -5.67628
C          0.23237       -2.17849       -4.34789
C          0.22153       -3.47117       -3.62362
O         -0.70177       -4.24138       -3.91431
N          1.25048       -3.85191       -2.74947
C          1.20281       -5.23417       -2.28070
C          2.36552       -3.04570       -2.33978
C          3.59049       -3.68161       -2.04160
C          4.69738       -2.96911       -1.58004
C          4.60248       -1.60007       -1.39863
C          3.40008       -0.95053       -1.67657
C          2.26202       -1.64846       -2.13865
H         -0.21271       -1.02951       -0.01085
H          0.12311        0.64362        0.47082
H          1.44354       -0.52324        0.35321
H         -0.29129        0.58854       -1.89050
H          1.39749        1.01744       -1.66250
H          0.72009        1.17226       -4.04462
H         -0.09670        1.13086       -6.35363
H         -0.71426       -1.02369       -7.42477
H         -0.52432       -3.12798       -6.14279
H          1.78395       -5.86180       -2.96373
H          1.59293       -5.31122       -1.26053
H          0.17650       -5.61378       -2.25790
H          3.71613       -4.75035       -2.19265
H          5.63020       -3.48641       -1.37192
H          5.46069       -1.03259       -1.04897
H          3.37287        0.12684       -1.54480
