26

C          0.21540        0.45003       -0.26937
C          0.16598        0.73860        1.22230
O          1.35715        1.34321        1.71370
C          2.56712        0.58861        1.58467
C          2.68901       -0.58004        2.57032
O          2.82701       -1.85408        1.92185
C          1.60509       -2.55220        1.69309
C          1.08409       -3.36620        2.88677
O          1.02634       -2.62037        4.10143
C          2.13161       -2.90720        4.95360
H          0.48893        1.35341       -0.82354
H         -0.75390        0.09242       -0.62826
H          0.96039       -0.31316       -0.51284
H         -0.64625        1.45017        1.40678
H         -0.08263       -0.14704        1.81093
H          2.74375        0.29182        0.54770
H          3.35443        1.30946        1.83606
H          3.62980       -0.45262        3.11729
H          1.88423       -0.56818        3.30867
H          0.83849       -1.86891        1.33253
H          1.78773       -3.25132        0.87026
H          0.06038       -3.68281        2.66008
H          1.67847       -4.27843        3.02079
H          1.99331       -3.89053        5.41235
H          3.07931       -2.88443        4.40573
H          2.16752       -2.15263        5.74297
