48

C          1.24753       -0.72626       -0.14964
C          0.43828       -0.57547        1.18784
C         -1.05338       -0.98888        1.03745
C         -1.92437        0.20608        0.65570
C         -1.08454        1.13891       -0.24008
C         -1.99764        1.83659       -1.17027
C         -2.64598        0.98676       -2.07556
C         -3.62937        1.45646       -2.89533
C         -3.96587        2.80325       -2.85300
O         -5.00343        3.29099       -3.62667
S         -6.00765        2.23459       -4.39458
O         -5.29332        1.57611       -5.47773
O         -6.73646        1.45170       -3.42603
O         -7.10697        3.15053       -5.12971
C         -3.23799        3.68567       -2.00559
C         -2.23573        3.19850       -1.13147
C         -1.34915        4.04183       -0.22944
C         -0.67722        3.28824        0.98457
C         -0.03970        1.92630        0.60147
C          0.38216        0.91418        1.74547
C          1.57042        0.95234        2.69845
C          1.41707       -0.42719        3.39364
C          1.21787       -1.39989        2.24167
O          0.57212       -2.58860        2.66023
H          1.38982        0.20820       -0.69891
H          0.76498       -1.44040       -0.82702
H          2.27244       -1.08008       -0.00376
H         -1.16730       -1.77310        0.28133
H         -1.45821       -1.38334        1.97619
H         -2.85082       -0.15973        0.20160
H         -2.27289        0.75198        1.54583
H         -0.52259        0.52921       -0.94640
H         -2.41264       -0.07711       -2.09687
H         -4.10840        0.71147       -3.51884
H         -7.65710        2.53757       -5.66188
H         -3.47167        4.74783       -2.02518
H         -1.92415        4.88980        0.16251
H         -0.54947        4.46000       -0.85650
H         -1.43548        3.14012        1.76184
H          0.09033        3.94387        1.41810
H          0.83786        2.16090       -0.01458
H         -0.44819        0.98191        2.46707
H          2.52958        1.01424        2.17705
H          1.49993        1.75227        3.44021
H          2.27354       -0.71163        4.01090
H          0.53050       -0.45770        4.04279
H          2.21220       -1.69131        1.88362
H          0.07231       -2.95412        1.90948
