16

N          1.02502        0.10202       -0.29236
C          0.33435       -0.75754       -1.09902
O         -0.84369       -1.02294       -0.90652
C          1.08174       -1.35349       -2.22094
C          2.16200       -2.21608       -1.98700
Cl         2.70805       -2.62551       -0.39786
C          2.84117       -2.79980       -3.06291
C          2.44419       -2.53407       -4.37222
C          1.36848       -1.68004       -4.60942
C          0.68539       -1.08940       -3.53949
Cl        -0.60194       -0.00406       -3.93241
H          0.53941        0.46589        0.51785
H          2.02318        0.24536       -0.35679
H          3.67809       -3.47252       -2.88553
H          2.97006       -2.99350       -5.20648
H          1.06462       -1.47524       -5.63429
