12

O          1.13062        0.39403        0.32133
C          2.30682        0.13589        0.10867
O          2.93195       -0.88500        0.74841
C          3.13583        0.91163       -0.81452
C          2.78060        2.21877       -1.30196
C          3.71563        2.74915       -2.16173
S          5.02235        1.68158       -2.41556
C          4.33370        0.50452       -1.37760
H          3.89319       -0.90566        0.60488
H          1.87198        2.74019       -1.01907
H          3.68961        3.71069       -2.65692
H          4.85559       -0.43492       -1.26200
