43

O          0.50469       -0.44786       -0.04327
C          1.57781        0.09236       -0.26935
O          2.15867        0.92332        0.63432
C          2.43184       -0.13401       -1.51945
N          2.71918       -1.55215       -1.74814
C          3.30992       -1.84117       -3.06550
C          4.80201       -1.57684       -3.18626
O          5.65772       -2.41112       -3.44376
O          5.15530       -0.28921       -2.99461
C          3.14603       -2.39254       -0.62410
C          4.61897       -2.42000       -0.27206
C          5.31935       -3.63730       -0.35393
C          6.70741       -3.70545       -0.12115
C          7.44125       -2.54535        0.12624
C          6.74217       -1.34315        0.26875
O          7.37514       -0.16912        0.57365
C          5.34563       -1.30476        0.14224
O          4.72797       -0.13182        0.49553
C          8.91903       -2.63002        0.24724
O          9.63382       -1.63564        0.25150
C          9.55798       -3.95967        0.34209
C         10.93330       -4.05249        0.60008
C         11.54437       -5.30271        0.71198
C         10.78660       -6.46347        0.56562
C          9.41900       -6.37463        0.29865
C          8.80555       -5.11938        0.18273
C          7.36265       -5.03112       -0.10647
O          6.70466       -6.04914       -0.28826
H          2.98212        1.34417        0.31208
H          1.84149        0.27352       -2.34998
H          3.34143        0.46712       -1.46798
H          3.13292       -2.89257       -3.31891
H          2.80781       -1.26245       -3.85140
H          6.13534       -0.30869       -3.05804
H          2.58554       -2.16450        0.28955
H          2.82789       -3.41497       -0.86951
H          4.78342       -4.55489       -0.60262
H          6.68938        0.52433        0.57586
H          3.99299       -0.40201        1.08533
H         11.53208       -3.15058        0.71822
H         12.61114       -5.36916        0.91479
H         11.26099       -7.43825        0.65676
H          8.83457       -7.28598        0.18357
