46

C          1.69352       -0.71242       -0.17079
C          1.13672       -1.46331        1.03279
C          1.12718       -0.64991        2.33117
C          0.35078        0.68466        2.34038
C         -1.20525        0.69590        2.57115
C         -1.57941       -0.20204        3.80363
C         -0.92732        0.05510        5.17664
C         -1.47636        1.19739        6.04532
C         -2.99305        1.31155        6.09086
C         -1.65487        2.18038        2.79803
C         -1.16197        3.27995        1.83423
C         -1.66908        3.25084        0.39468
C         -3.17179        3.44186        0.27406
C         -1.94940        0.15425        1.31418
O         -1.35906       -0.12112        0.26870
N         -3.30464        0.04712        1.27062
O         -4.14136        0.14063        2.38480
H          1.10490        0.17421       -0.41985
H          1.69075       -1.36124       -1.05275
H          2.72498       -0.39446        0.01076
H          0.13938       -1.85325        0.81365
H          1.76545       -2.34867        1.19140
H          0.80120       -1.29847        3.14950
H          2.17529       -0.40996        2.55849
H          0.79734        1.28123        3.14892
H          0.59346        1.22877        1.42253
H         -2.65542       -0.21872        3.96974
H         -1.35106       -1.24156        3.52922
H         -1.06812       -0.86593        5.76013
H          0.15688        0.17070        5.08026
H         -1.11695        1.04242        7.07084
H         -1.04668        2.15482        5.73867
H         -3.45006        0.37448        6.42281
H         -3.28931        2.09961        6.79119
H         -3.41129        1.57574        5.11584
H         -2.74296        2.24702        2.88424
H         -1.26794        2.49879        3.76662
H         -1.45223        4.24611        2.26958
H         -0.06626        3.29711        1.82125
H         -1.18136        4.06655       -0.15382
H         -1.36111        2.33346       -0.11017
H         -3.47311        4.41531        0.67318
H         -3.47179        3.39968       -0.77774
H         -3.72948        2.67156        0.80863
H         -3.66962       -0.46597        0.47300
H         -4.53060        1.02929        2.28581
