28

C          2.27206        0.11157       -0.95833
C          1.23335       -0.16948       -2.03360
C          1.06944       -1.65211       -2.37780
C          0.53508       -2.55084       -1.26333
C         -0.97948       -2.59804       -1.15785
O         -1.59750       -3.56773       -1.61122
C         -1.73842       -1.45966       -0.49805
C         -1.70932       -1.47430        1.02977
C         -0.50188       -0.80524        1.69158
C         -0.40634        0.69336        1.44839
H          2.07653       -0.43882       -0.03617
H          2.27226        1.17830       -0.71015
H          3.27472       -0.15349       -1.30653
H          0.27705        0.26624       -1.74264
H          1.53648        0.36364       -2.94303
H          0.41747       -1.73514       -3.25584
H          2.05226       -2.03418       -2.68277
H          0.84301       -3.57983       -1.49795
H          0.98133       -2.34436       -0.29307
H         -1.44367       -0.50349       -0.92472
H         -2.78570       -1.59073       -0.80581
H         -2.61233       -0.96701        1.39328
H         -1.77053       -2.51027        1.38462
H         -0.56878       -0.96772        2.77430
H          0.42482       -1.28741        1.37891
H         -1.24334        1.21837        1.91812
H          0.52145        1.08269        1.88098
H         -0.40212        0.94359        0.38588
