29

N          0.87261       -0.08454       -0.02334
C          0.18963        0.97096        0.63286
C          0.66064        2.29423        0.50550
C          0.05587        3.28023        1.29080
N         -0.96427        3.02670        2.14199
C         -1.38274        1.76558        2.29606
C         -2.40407        1.53162        3.20768
C         -2.89257        0.24952        3.46041
C         -2.34210       -0.83313        2.79324
C         -1.31718       -0.62149        1.87049
C         -0.82612        0.68008        1.58901
C          0.46766        4.72820        1.21299
C          1.84763        4.93620        0.60186
C          1.96261        4.13852       -0.68632
C          1.81621        2.64368       -0.40411
H          0.28858       -0.89518       -0.19509
H          1.35583        0.19130       -0.86980
H         -2.82848        2.37785        3.74380
H         -3.69150        0.10435        4.18214
H         -2.70354       -1.83919        2.98827
H         -0.89809       -1.49215        1.37509
H          0.45065        5.16851        2.21709
H         -0.28209        5.25801        0.61239
H          2.62574        4.61672        1.30631
H          2.00784        6.00192        0.40418
H          1.18345        4.46160       -1.38888
H          2.92742        4.33033       -1.16892
H          1.70202        2.14388       -1.37245
H          2.73874        2.27341        0.06035
