11

C          1.07687        0.00015        0.11561
C          0.55799        1.22007       -0.63219
C          1.06872        1.31570       -2.06513
Cl         0.44678       -0.00218       -3.08492
H          0.70989       -0.93112       -0.32581
H          0.74145        0.02833        1.15738
H          2.17124       -0.02445        0.11370
H         -0.53831        1.21691       -0.62064
H          0.87662        2.11857       -0.09032
H          0.74334        2.25690       -2.51829
H          2.16188        1.27992       -2.09828
