7

O          0.91931       -0.05421       -0.07071
N          2.16369       -0.02393       -0.02714
O          2.79732        0.58667        0.85140
C          2.93639       -0.78387       -1.12055
Cl         2.45646       -2.48517       -0.98748
Cl         2.45646       -0.06611       -2.66876
Cl         4.68352       -0.60743       -0.86669
