42

N          1.03483        0.07844        0.05131
C          2.29580        0.07844        0.05131
C          3.81580        0.07844        0.05131
C          4.18204        1.51754        0.54773
N          3.81660        1.77869        1.96881
C          4.86143        2.19948        2.91929
C          4.90127        3.71412        3.18364
O          4.05637        4.09213        4.27025
C          2.48615        1.94944        2.34462
C          1.74643        3.10841        2.06850
C          0.37711        3.19536        2.39540
C         -0.30100        2.10560        2.95305
N         -1.68778        2.17096        3.22208
N         -2.32369        1.53962        2.34453
C         -3.71824        1.59956        2.56304
C         -4.38719        0.42733        2.95926
C         -5.78038        0.39881        3.11452
C         -6.52455        1.55721        2.86577
N         -7.98726        1.53705        3.01201
O         -8.51919        0.45921        3.32168
O         -8.60079        2.59284        2.81754
C         -5.88584        2.73520        2.46133
C         -4.49226        2.74745        2.30371
Cl        -3.76968        4.21595        1.74251
C          0.44103        0.96498        3.26721
C          1.81705        0.90188        2.99425
H          4.19969       -0.68213        0.73721
H          4.19807       -0.09530       -0.95814
H          5.26374        1.64244        0.42030
H          3.71154        2.27404       -0.09601
H          4.72338        1.65693        3.86167
H          5.83563        1.89719        2.51914
H          5.91590        4.00304        3.47555
H          4.62674        4.30097        2.30145
H          3.18917        3.67334        4.12413
H          2.22050        3.96535        1.59641
H         -0.17285        4.10984        2.18347
H         -3.81251       -0.48066        3.13490
H         -6.26371       -0.52972        3.41637
H         -6.45776        3.63721        2.25259
H         -0.06239        0.09715        3.68326
H          2.34883       -0.02170        3.20741
