26

Cl         1.10099        0.08573        0.22067
C          2.83531        0.04537        0.05725
Cl         3.60166        1.58962        0.31062
C          3.52458       -1.08297       -0.23946
C          2.80115       -2.35578       -0.50388
C          2.04822       -2.52681       -1.67581
C          1.39460       -3.73622       -1.92547
C          1.50092       -4.78206       -1.01114
Cl         0.70053       -6.27276       -1.32145
C          2.25547       -4.63011        0.15039
C          2.90658       -3.41965        0.40303
C          5.01073       -1.05856       -0.30319
C          5.77976       -0.91543        0.86200
C          7.17524       -0.92026        0.79253
C          7.80636       -1.07984       -0.43926
Cl         9.52445       -1.09115       -0.52373
C          7.05501       -1.23543       -1.60238
C          5.65918       -1.22704       -1.53466
H          1.96285       -1.72055       -2.40144
H          0.80800       -3.85529       -2.83260
H          2.34329       -5.44804        0.86063
H          3.49641       -3.31608        1.31122
H          5.29944       -0.79707        1.83111
H          7.76107       -0.80117        1.70015
H          7.54743       -1.36592       -2.56240
H          5.08465       -1.35445       -2.44960
