75

C          1.18583       -0.02119       -0.49766
C          0.95017       -1.38804        0.12578
C          1.42497       -1.46356        1.57848
C          0.71304       -0.49336        2.52763
C         -0.79920       -0.71728        2.63304
C         -1.18084       -2.10780        3.15033
C         -0.60934       -2.42477        4.53803
C         -1.09013       -1.47460        5.64168
C         -2.61074       -1.42902        5.79105
C         -3.21360       -2.78640        6.15513
C         -3.02833       -3.17200        7.61911
C         -3.72428       -2.26517        8.64674
C         -5.24984       -2.08758        8.55506
C         -6.04907       -3.34800        8.26954
C         -6.64520       -3.11059        6.91354
O         -7.18899       -3.98850        6.26355
N         -6.47260       -1.79585        6.56679
C         -6.94993       -1.18577        5.30975
C         -8.46623       -1.32577        5.17584
C         -9.01634       -0.76683        3.85320
C        -10.44538       -1.32356        3.67285
C         -9.12556        0.76652        3.89225
N         -8.25541       -1.23632        2.69216
C         -6.79126       -1.22742        2.74099
C         -6.32503       -2.16937        1.60716
C         -6.20758        0.16273        2.42836
C         -6.25627       -1.78128        4.07596
C         -5.68074       -1.13201        7.46457
O         -5.34130        0.04190        7.40838
H          0.59278        0.75456       -0.00408
H          0.89981       -0.03193       -1.55325
H          2.24210        0.25807       -0.43127
H         -0.11172       -1.64747        0.05213
H          1.49127       -2.14130       -0.45835
H          1.30455       -2.49290        1.93648
H          2.50197       -1.26095        1.61543
H          1.17116       -0.57471        3.52005
H          0.89750        0.53994        2.21501
H         -1.22466        0.05266        3.28730
H         -1.27202       -0.55860        1.65740
H         -2.27362       -2.19554        3.15939
H         -0.84337       -2.87526        2.44506
H         -0.86095       -3.45932        4.79386
H          0.48509       -2.40656        4.51088
H         -0.63337       -1.77144        6.59212
H         -0.72714       -0.45961        5.44290
H         -2.87119       -0.67125        6.53577
H         -3.06055       -1.07304        4.85833
H         -4.26803       -2.79145        5.89927
H         -2.79890       -3.58062        5.52775
H         -3.36515       -4.20589        7.75162
H         -1.95628       -3.19157        7.85081
H         -3.50194       -2.68939        9.63507
H         -3.24350       -1.27944        8.64015
H         -5.59366       -1.65894        9.50532
H         -6.86599       -3.46596        8.98865
H         -5.45270       -4.26219        8.26959
H         -6.70086       -0.11921        5.35740
H         -8.95150       -0.83238        6.02873
H         -8.74070       -2.38477        5.25207
H        -10.91287       -0.95053        2.75442
H        -10.44423       -2.41968        3.62322
H        -11.08723       -1.03626        4.51413
H         -8.18066        1.25536        4.13433
H         -9.47518        1.16466        2.93240
H         -9.84477        1.08519        4.65610
H         -8.59534       -0.80426        1.83307
H         -6.67077       -1.82155        0.62595
H         -5.23059       -2.22884        1.56818
H         -6.70345       -3.18887        1.74895
H         -5.12821        0.10000        2.24289
H         -6.66261        0.59150        1.52714
H         -6.33999        0.87481        3.24417
H         -5.17813       -1.59682        4.13607
H         -6.37264       -2.87250        4.08799
