21

C          1.04730        0.12091        0.04680
C          0.42495        1.47938       -0.13585
O         -0.37076        1.72344       -1.03728
C          0.76095        2.53486        0.84987
C          2.06646        2.70745        1.31178
C          2.34241        3.70978        2.24388
C          1.31408        4.52896        2.72727
O          1.63581        5.48809        3.64449
C         -0.00306        4.36057        2.27282
C         -1.18106        5.14403        2.73441
O         -2.32022        4.98260        2.32765
O         -0.93116        6.06139        3.67899
C         -0.26434        3.36543        1.31461
H          0.60823       -0.57419       -0.67549
H          0.82911       -0.25275        1.05140
H          2.12492        0.15838       -0.12417
H          2.88159        2.09180        0.94105
H          3.36671        3.84036        2.58397
H          2.58879        5.48043        3.82616
H         -1.80430        6.46104        3.86505
H         -1.27732        3.22329        0.93679
