50

C          1.21207       -0.47890        0.46167
C          1.02057       -0.09784       -0.99847
O          1.35972       -1.12137       -1.94776
C          2.67408       -1.11254       -2.32509
N          3.53173       -1.11046       -1.28065
C          4.84080       -1.16095       -1.54221
C          5.34905       -1.18415       -2.82076
C          6.83117       -1.23360       -3.04114
C          4.44157       -1.14606       -3.89621
C          3.05711       -1.16948       -3.67869
C          2.09988       -1.11438       -4.88204
C          0.91649       -2.10120       -4.80226
C          1.12182       -3.41494       -5.29388
C          0.14766       -4.41627       -5.22349
C         -1.02662       -4.18104       -4.52808
C         -1.96996       -5.23761       -4.31953
N         -2.72430       -6.10502       -4.14674
C         -1.24811       -2.91279       -3.99797
C         -0.32783       -1.85509       -4.17415
O         -0.81259       -0.73465       -3.55825
C         -0.45383        0.57127       -3.95898
C          2.80783       -0.96004       -6.29305
C          2.42007       -1.90470       -7.43228
N          1.31351       -1.58904       -8.15823
O          3.08605       -2.88473       -7.75770
C          4.31907       -0.88385       -6.22537
C          5.10098       -0.64410       -7.50200
N          5.02105       -0.99953       -5.15304
H          0.82090       -1.47843        0.66909
H          0.69833        0.24421        1.10519
H          2.26649       -0.46661        0.74958
H         -0.05165        0.08673       -1.13299
H          1.52442        0.84781       -1.23518
H          5.48298       -1.16998       -0.66699
H          7.09309       -2.12092       -3.62687
H          7.17399       -0.33494       -3.56310
H          7.37436       -1.29607       -2.09220
H          1.66739       -0.12081       -4.79033
H          2.07282       -3.70783       -5.73553
H          0.34394       -5.38808       -5.67316
H         -2.14856       -2.72988       -3.41009
H          0.51932        0.86381       -3.55999
H         -0.50604        0.69416       -5.04243
H         -1.17145        1.25824       -3.49830
H          2.52285        0.03902       -6.66425
H          1.08025       -2.21231       -8.92377
H          0.68368       -0.82900       -7.95033
H          5.88569        0.09622       -7.31701
H          5.57055       -1.58089       -7.81608
H          4.45507       -0.27279       -8.30050
