19

C          0.99662       -0.15066        0.05809
C          0.70113        1.11119       -0.73063
O          1.19742        0.99911       -2.07502
C          2.51367        1.28580       -2.24962
O          3.29533        1.60315       -1.36494
C          2.88577        1.23599       -3.69736
C          2.33386        0.04780       -4.43337
O          1.64877        0.20691       -5.44886
C          2.74623       -1.31349       -3.89923
F          4.10136       -1.44231       -3.86730
F          2.31713       -1.52778       -2.62703
F          2.27862       -2.35021       -4.64342
H          0.60194       -1.03053       -0.46001
H          0.54992       -0.09690        1.05499
H          2.07476       -0.30272        0.16890
H         -0.38228        1.25246       -0.80358
H          1.10922        2.00022       -0.23606
H          2.53034        2.15725       -4.17090
H          3.97682        1.21031       -3.78843
