28

O          1.00631       -0.39004        0.15763
C          2.19140       -0.09450        0.03158
O          3.06247       -0.95963       -0.54833
C          2.83162        1.23051        0.48818
C          2.59417        2.36601       -0.51577
C          3.48351        3.45871       -0.54967
C          3.27195        4.53560       -1.41410
C          2.19087        4.52377       -2.28985
C          1.31786        3.43989       -2.29516
C          1.50871        2.37648       -1.40778
C          2.53067        1.53432        1.96699
C          2.32100        2.83380        2.45749
C          2.17414        3.07737        3.82718
C          2.21622        2.02529        4.73522
C          2.40587        0.72738        4.27523
C          2.57331        0.48617        2.90935
H          3.97758       -0.62978       -0.62494
H          3.91892        1.05957        0.47736
H          4.33163        3.49772        0.13219
H          3.94570        5.38850       -1.39660
H          2.02376        5.35994       -2.96380
H          0.47597        3.42380       -2.98355
H          0.78476        1.56339       -1.43280
H          2.27142        3.69224        1.79255
H          2.02775        4.09473        4.18195
H          2.09741        2.21618        5.79834
H          2.42732       -0.10124        4.97883
H          2.73171       -0.54459        2.59439
