26

C          1.09288        0.03892        0.03575
C          0.56301        0.86400        1.21540
C          1.12653        2.28800        1.10645
C         -0.98397        0.89034        1.26925
N         -1.57507       -0.45827        1.28129
C         -1.49481        1.64236        2.51309
O         -2.44424        2.56929        2.26323
N         -1.08793        1.39349        3.70708
C         -1.70299        2.18263        4.78769
C         -1.18043        3.60574        4.83278
O         -1.80521        4.58205        5.22409
O          0.11674        3.74190        4.48698
H          0.68257        0.39750       -0.91447
H          0.83879       -1.02025        0.14178
H          2.18504        0.10209       -0.02348
H          0.95519        0.41879        2.13926
H          0.76106        2.78986        0.20383
H          0.84589        2.89873        1.96878
H          2.22089        2.27094        1.06333
H         -1.35484        1.40399        0.37396
H         -2.58402       -0.40689        1.40742
H         -1.40297       -0.93149        0.39769
H         -2.67640        2.63421        1.32430
H         -2.79515        2.19847        4.69606
H         -1.46132        1.71064        5.74559
H          0.29797        4.69175        4.63135
