26

C          0.31352        0.86641       -0.32240
C          0.60563        0.37655       -1.73126
O          1.07262       -0.97729       -1.68246
C          2.40091       -1.08051       -2.01271
C          2.74735       -1.14411       -3.36495
C          4.08095       -1.31729       -3.73020
C          5.05936       -1.44880       -2.74568
C          4.70830       -1.40287       -1.39241
C          3.37434       -1.21057       -1.00613
C          2.97507       -1.16908        0.40968
C          3.67963       -0.55646        1.37305
C          3.18285       -0.40015        2.74615
O          3.86670       -0.04188        3.68859
O          1.86457       -0.61572        2.87288
H         -0.21689        0.10476        0.25880
H         -0.28371        1.78197       -0.34258
H          1.24420        1.08783        0.20842
H         -0.32670        0.36778       -2.30600
H          1.29915        1.05894       -2.23908
H          1.97894       -1.07071       -4.12899
H          4.35573       -1.36635       -4.78077
H          6.09789       -1.60084       -3.03018
H          5.48892       -1.53484       -0.64719
H          1.99926       -1.59967        0.62821
H          4.64618       -0.10262        1.19121
H          1.67949       -0.41519        3.81294
