13

N          0.78238        0.10636       -0.19587
C          0.37255       -1.18867       -0.10376
O         -0.67922       -1.46092        0.47145
C          1.29735       -2.26142       -0.62128
C          2.29420       -1.85433       -1.67305
N          3.30788       -2.74609       -1.88001
O          2.23674       -0.81681       -2.32483
H          0.10284        0.80413        0.07843
H          1.40904        0.36568       -0.95678
H          1.83649       -2.66799        0.24187
H          0.67686       -3.05541       -1.05316
H          4.01499       -2.50668       -2.56392
H          3.44347       -3.57479       -1.31709
