47

C          1.31490        0.00889       -0.28383
C          1.06052       -1.16993        0.66092
C          1.83653       -0.95449        1.96034
N         -0.39069       -1.24867        0.85968
C         -0.87145       -2.44806        1.54399
C         -1.00941       -2.33766        3.06923
C         -1.78532       -1.13223        3.62829
C         -3.33903       -1.14892        3.59591
C         -3.95796       -1.40313        2.19741
N         -3.64135       -0.53189        1.19119
O         -4.69378       -2.35023        1.92098
C         -3.91005       -2.12270        4.65302
C         -3.86616       -3.51189        4.67886
C         -4.44536       -4.18348        5.75773
C         -5.07331       -3.47240        6.78926
C         -5.14624       -2.07833        6.74937
C         -4.57116       -1.41144        5.67709
C         -4.52673        0.00233        5.38504
C         -5.04126        1.07459        6.09960
C         -4.83889        2.36710        5.61030
C         -4.12455        2.57711        4.42313
C         -3.60959        1.49825        3.70087
C         -3.82501        0.20875        4.17905
H          0.95952        0.95312        0.14585
H          0.80557       -0.13931       -1.24272
H          2.38483        0.11776       -0.49116
H          1.42369       -2.07820        0.16538
H          1.38267       -0.16899        2.57548
H          1.88045       -1.87418        2.55033
H          2.87098       -0.65798        1.75635
H         -0.70599       -0.40189        1.31717
H         -1.85044       -2.69831        1.12380
H         -0.23653       -3.30989        1.30153
H         -1.43033       -3.27276        3.44586
H         -0.00499       -2.29896        3.50386
H         -1.47281       -1.03298        4.67965
H         -1.41049       -0.21851        3.15482
H         -3.97981       -0.79159        0.27249
H         -2.82028        0.05081        1.22006
H         -3.42352       -4.08009        3.86758
H         -4.42103       -5.27017        5.79057
H         -5.52216       -4.01292        7.61886
H         -5.65110       -1.53816        7.54294
H         -5.59019        0.92321        7.02298
H         -5.23591        3.21892        6.15730
H         -3.97008        3.59176        4.06289
H         -3.05174        1.68690        2.79127
