41

C         -0.32923       -0.49906       -0.58284
O          0.36380       -1.23840        0.41431
C          0.73827       -2.46993        0.02293
O         -0.04574       -3.35598       -0.28388
C          2.21712       -2.59447       -0.14066
C          2.67569       -3.83474       -0.63082
C          4.02076       -4.03764       -0.97757
C          4.47338       -5.37978       -1.47306
C          4.92037       -2.97850       -0.85461
C          4.48822       -1.74830       -0.36192
C          3.14820       -1.55667        0.01467
C          2.85116       -0.23055        0.58564
N          2.32594       -0.07609        1.77028
C          2.16481        1.28712        1.97180
O          1.60552        1.81105        2.92256
C          2.80868        2.05751        0.78772
C          1.76053        2.93354        0.10725
C          4.06905        2.82701        1.25786
C          5.08122        1.93351        1.99638
C          4.78753        3.53582        0.10319
N          3.18743        0.93166       -0.07150
H         -0.68313        0.42824       -0.12495
H         -1.17890       -1.04970       -0.99064
H          0.37654       -0.23392       -1.37766
H          1.96946       -4.65640       -0.75896
H          4.29852       -6.14034       -0.70536
H          3.92962       -5.65186       -2.38304
H          5.54318       -5.38053       -1.70728
H          5.96675       -3.10515       -1.12492
H          5.21007       -0.94162       -0.24804
H          1.48058        3.77777        0.74761
H          2.11903        3.33272       -0.84738
H          0.84356        2.37335       -0.10589
H          3.74866        3.59784        1.97177
H          5.47366        1.14355        1.34765
H          5.93291        2.52453        2.34833
H          4.63367        1.46142        2.87668
H          4.15647        4.31040       -0.34230
H          5.70002        4.02696        0.45795
H          5.07421        2.83157       -0.68507
H          3.04022        0.99519       -1.07219
