12

O          1.07880       -0.10850        0.04484
C          0.62764        0.71886       -1.02779
C          1.07769        2.16986       -0.83127
Cl         2.88231        2.21266       -0.80814
C          0.58326        3.10712       -1.92857
Cl        -1.19134        3.27065       -1.92224
H          2.04899       -0.01609        0.08996
H          1.00701        0.30090       -1.96680
H         -0.46321        0.64264       -1.04600
H          0.76672        2.52662        0.15647
H          0.99119        4.11434       -1.79578
H          0.87549        2.75046       -2.92173
