30

C          1.02199       -0.12967       -0.02794
C          0.51746       -0.23811       -1.46801
C          1.20341       -1.37964       -2.21108
O          0.70077       -2.22171       -2.94071
O          2.54654       -1.37169       -2.06142
C         -0.99112       -0.38722       -1.47869
C         -1.76937       -1.52391       -1.38132
C         -3.16383       -1.24070       -1.45030
C         -3.43194        0.11298       -1.53550
C         -4.70603        0.82017       -1.62278
O         -4.82670        2.02643       -1.83630
C         -5.96629        0.04480       -1.49690
C         -6.92658        0.16668       -2.50775
C         -8.10544       -0.57552       -2.43791
C         -8.33077       -1.42586       -1.35460
C         -7.38823       -1.52372       -0.32965
C         -6.20778       -0.78172       -0.39276
S         -1.97449        1.01661       -1.58624
H          0.81219       -1.04414        0.53853
H          0.54620        0.70673        0.49623
H          2.10394        0.03732        0.00418
H          0.79210        0.67502       -2.01319
H          2.84704       -2.12235       -2.61676
H         -1.36286       -2.52613       -1.30277
H         -3.92271       -2.01352       -1.43905
H         -6.75317        0.83305       -3.35025
H         -8.84804       -0.49034       -3.22754
H         -9.24897       -2.00673       -1.30470
H         -7.57678       -2.17656        0.51934
H         -5.48828       -0.85156        0.41927
