39

C         -2.86705        0.68713       -0.01912
C         -1.48717        0.08724       -0.05345
C         -1.38654       -1.25586       -0.07481
C         -0.10994       -2.01670        0.06275
C          1.00689       -1.14793        0.62607
C          1.11186        0.22090       -0.08904
C          1.51633       -0.00909       -1.56388
C          2.25316        1.00442        0.60030
C         -0.26125        1.01101        0.05256
C         -0.29105        2.23171       -0.92098
C         -1.28801        3.37345       -0.66069
C         -1.27953        3.96755        0.75241
C         -0.03550        4.80176        1.02928
C         -2.50368        4.84469        0.90932
O         -3.39528        4.61421        1.72009
H         -2.93552        1.45839        0.75342
H         -3.12893        1.10755       -0.99330
H         -3.63392       -0.05740        0.22394
H         -2.28509       -1.86627       -0.14733
H         -0.26911       -2.86638        0.73690
H          0.16808       -2.43459       -0.91109
H          0.82578       -0.98613        1.69795
H          1.95444       -1.69749        0.55639
H          1.81580        0.92404       -2.05298
H          2.37323       -0.68955       -1.63306
H          0.70042       -0.44177       -2.15131
H          3.19581        0.44639        0.55160
H          2.43057        1.97737        0.13337
H          2.02903        1.17853        1.65878
H         -0.27945        1.39552        1.08013
H          0.69972        2.69810       -0.94644
H         -0.47359        1.86772       -1.94092
H         -1.06768        4.17350       -1.38241
H         -2.29998        3.05679       -0.92525
H         -1.36140        3.18167        1.50910
H          0.06890        5.61576        0.30304
H         -0.09127        5.25948        2.02326
H          0.87007        4.18917        0.99109
H         -2.56834        5.71378        0.23166
