18

C          0.94537       -0.15098       -0.11747
C          0.47961       -1.02383        1.03713
C          0.89982       -0.49594        2.40973
C          0.37422        0.89658        2.77596
C         -1.14538        0.98581        2.81044
O          0.87612        1.24230        4.06833
H          0.45921        0.82883       -0.10126
H          0.69800       -0.62719       -1.07170
H          2.02916       -0.00144       -0.08464
H         -0.60829       -1.14325        0.99077
H          0.90552       -2.02640        0.90888
H          0.57883       -1.21470        3.17538
H          1.99603       -0.48494        2.47315
H          0.76661        1.64471        2.08011
H         -1.56623        0.24594        3.50011
H         -1.46015        1.96950        3.17581
H         -1.58403        0.83219        1.82070
H          0.52501        0.59822        4.70700
