28

C          0.93824       -0.33032       -0.01547
O          0.47343        0.19125       -1.25045
P          1.05010        1.72896       -1.79432
O          1.26569        2.20898       -0.35260
O          2.42710        0.99332       -2.33824
C          2.25988       -0.02827       -3.30838
O          1.62677        3.26667       -2.33820
C          1.60675        3.53322       -3.67909
C          2.71350        4.19227       -4.20423
C          2.76527        4.48169       -5.56935
C          1.71051        4.12855       -6.42102
S          1.89855        4.55538       -8.14785
C          0.48520        3.74827       -8.94235
C          0.59147        3.49180       -5.86866
C          0.53697        3.19642       -4.49970
H          0.62443       -1.37547        0.05211
H          0.47723        0.20921        0.81735
H          2.02775       -0.28437        0.04799
H          2.37941       -1.00061       -2.82053
H          1.27065        0.01639       -3.77578
H          3.02269        0.07529       -4.08236
H          3.54073        4.46943       -3.55645
H          3.64534        4.98936       -5.96162
H          0.48676        2.67325       -8.74333
H         -0.45435        4.19185       -8.60259
H          0.55822        3.89511      -10.02357
H         -0.26372        3.22429       -6.47949
H         -0.35866        2.72891       -4.10176
