31

N          1.10436        0.33589       -0.21537
S          0.51299        1.84784       -0.65222
O          1.21849        2.22713       -1.85187
O         -0.92359        1.72234       -0.58713
C          1.04255        2.90390        0.66020
C          0.27275        4.02357        0.98000
C          0.62861        4.81541        2.07713
C          1.74481        4.49578        2.86753
S          2.04264        5.53656        4.28735
C          2.80969        4.44298        5.54680
C          1.85199        3.49437        6.27833
C          1.50444        2.18318        5.56453
C          2.67766        1.22048        5.39594
O          3.02065        0.62596        6.64037
C          2.53733        3.41260        2.47226
F          3.66598        3.10865        3.12545
C          2.18502        2.60045        1.39644
H          0.32300       -0.30057       -0.04757
H          1.74895        0.00268       -0.93440
H         -0.60629        4.28008        0.39080
H          0.01417        5.68259        2.31696
H          3.69524        3.93832        5.16013
H          3.18912        5.14408        6.30060
H          2.30569        3.24124        7.24537
H          0.92144        4.02364        6.51958
H          0.73333        1.67900        6.16121
H          1.05227        2.39395        4.59307
H          2.39013        0.41114        4.71730
H          3.56973        1.69528        4.98324
H          3.53589        1.27424        7.14857
H          2.80652        1.74317        1.15863
