44

O          1.22232        0.27239        0.30774
C          2.43068        0.06726        0.20824
N          3.20145        1.10388       -0.20805
C          4.61321        1.33757       -0.40829
C          4.94781        1.52235       -1.88940
C          4.48015        2.85955       -2.47774
C          5.11373        4.10619       -1.84768
C          6.64887        4.14476       -1.86008
C          7.27629        4.03116       -3.25020
N          6.85142        5.11605       -4.10846
C          7.60957        6.14754       -4.56963
O          7.11667        7.06628       -5.20538
O          8.92641        6.01684       -4.28490
C          9.79684        7.05894       -4.77254
C          9.91546        7.05035       -6.29950
O          8.94837        7.90007       -6.91270
O          2.91872       -1.16196        0.46448
C          4.24844       -1.72055        0.49003
C          4.80959       -2.01202       -0.90102
O          3.79495       -2.24631       -1.86667
H          2.60231        1.90592       -0.36738
H          4.86548        2.23089        0.16896
H          5.20780        0.53664        0.01404
H          6.03061        1.42459       -2.02422
H          4.49220        0.71380       -2.47482
H          4.68552        2.85662       -3.55514
H          3.39007        2.93829       -2.38606
H          4.72478        4.99031       -2.36761
H          4.77153        4.20824       -0.81149
H          6.96943        5.08765       -1.39895
H          7.04263        3.34416       -1.22338
H          8.36636        4.02346       -3.15282
H          6.98925        3.09635       -3.74053
H          5.87527        5.18895       -4.36297
H          9.46098        8.02714       -4.38487
H         10.77890        6.84094       -4.34024
H         10.89476        7.43573       -6.59728
H          9.79322        6.04216       -6.70720
H          8.08330        7.72376       -6.48217
H          4.91970       -1.13197        1.12195
H          4.13574       -2.67908        1.01071
H          5.43742       -1.19625       -1.26195
H          5.45425       -2.89627       -0.86149
H          3.09911       -1.57810       -1.72661
