43

C          0.06850       -0.08687       -0.62557
C         -0.65035       -0.81782        0.49149
C          0.00606       -0.92197        1.88640
N          0.58776        0.21801        2.60739
C          0.67025        0.04706        4.07554
C          2.01616        0.03081        4.83522
C          2.64964        1.38205        5.13945
C          1.63161        1.00083        1.96085
C          3.09909        0.50704        1.84164
C          3.40827       -0.71347        1.01012
C          3.91297       -0.51757       -0.29368
C          4.18777       -1.59198       -1.15694
C          3.92362       -2.89849       -0.76213
C          3.45863       -3.08486        0.52011
C          3.25872       -2.03607        1.42725
C          2.90304       -2.65530        2.75588
C          2.66796       -4.12018        2.39578
O          2.20037       -4.98682        3.12063
N          3.09047       -4.29332        1.09076
H         -0.10381        0.99119       -0.55856
H         -0.32025       -0.40681       -1.59831
H          1.13905       -0.28807       -0.63070
H         -1.66205       -0.41009        0.58726
H         -0.77922       -1.85494        0.14609
H         -0.79790       -1.33368        2.51401
H          0.72568       -1.72759        1.80894
H          0.04954        0.83134        4.52601
H          0.17028       -0.89152        4.35184
H          1.85786       -0.47212        5.79825
H          2.74284       -0.60013        4.32754
H          2.13440        1.87169        5.96994
H          3.69556        1.23790        5.43599
H          2.65028        2.06776        4.29292
H          1.29736        1.31073        0.97125
H          1.65571        1.96736        2.48010
H          3.63445        1.35483        1.38605
H          3.59533        0.40899        2.80512
H          4.10013        0.49240       -0.65762
H          4.59367       -1.39427       -2.14564
H          4.09689       -3.73113       -1.43233
H          1.99638       -2.27518        3.21500
H          3.74534       -2.59622        3.45035
H          3.04280       -5.18008        0.61326
