35

C          1.39531       -0.14019        0.12686
C          0.61901       -1.11809        1.02419
C          1.17521       -0.95366        2.46637
C         -0.88684       -0.75373        1.12116
O         -1.72704       -0.90639       -0.01086
C         -1.62023        0.03116       -1.08258
C         -1.90712        1.44355       -0.68583
C         -1.20458        2.58693       -1.37679
O         -2.54376        2.22234       -1.71410
C          0.90982       -2.58315        0.60252
O          0.69144       -2.92197       -0.75791
C         -0.58754       -3.40050       -1.18729
C         -1.39574       -4.15811       -0.18345
C         -2.58170       -4.97050       -0.63416
O         -1.33302       -5.58418       -0.27999
H          1.08722        0.89507        0.31159
H          1.26864       -0.35546       -0.93591
H          2.47229       -0.19622        0.32488
H          1.01145        0.06267        2.84259
H          0.68595       -1.64898        3.15900
H          2.25208       -1.15250        2.50763
H         -1.33239       -1.41193        1.87876
H         -1.00340        0.25753        1.52715
H         -0.65416       -0.06698       -1.57870
H         -2.36514       -0.28162       -1.82365
H         -2.29786        1.56822        0.31367
H         -1.05831        3.51104       -0.83186
H         -0.43636        2.37358       -2.11152
H          1.98901       -2.74069        0.73823
H          0.45420       -3.30471        1.28675
H         -1.16135       -2.56387       -1.58452
H         -0.38731       -4.03714       -2.05776
H         -1.50807       -3.68182        0.77772
H         -3.40866       -5.08602        0.05600
H         -2.86371       -4.94306       -1.67878
