16

C          1.05778        0.00499       -0.00317
C          0.55867       -0.08901        1.43310
C          1.03798        1.07758        2.30690
O          0.52730        2.30804        1.79460
C          0.57341        0.93265        3.76271
O          1.10685       -0.23371        4.37838
H          0.65534        0.88671       -0.51087
H          0.74155       -0.87728       -0.56896
H          2.15073        0.05468       -0.03550
H         -0.53773       -0.10942        1.41311
H          0.89934       -1.04103        1.85488
H          2.13371        1.12133        2.28867
H          1.02992        2.52066        0.98957
H          0.90395        1.80149        4.34247
H         -0.52033        0.91054        3.83263
H          0.54603       -0.98280        4.11400
