24

C          0.97170       -0.01653       -0.04125
C          0.49086        1.19540       -0.81634
C          0.83100        1.13228       -2.28333
O          0.02080        1.36964       -3.16935
O          2.14931        0.85673       -2.47549
C          2.58189        0.84755       -3.84741
C          2.25754       -0.47448       -4.50145
C          2.80479       -1.64817       -3.94847
C          2.49867       -2.90124       -4.48208
C          1.63791       -2.99496       -5.57132
Cl         1.23909       -4.54021       -6.21371
C          1.09990       -1.84785       -6.14601
C          1.41721       -0.59133       -5.62146
Cl         0.74871        0.78429       -6.42526
H          0.59877       -0.94371       -0.48840
H          0.61925        0.03322        0.99384
H          2.06494       -0.06902       -0.02245
H         -0.60014        1.25968       -0.73073
H          0.91098        2.11792       -0.40326
H          2.19103        1.72411       -4.37274
H          3.67189        0.97117       -3.83905
H          3.46859       -1.58752       -3.08699
H          2.92689       -3.79690       -4.03921
H          0.43235       -1.92909       -6.99990
