65

C          1.02847       -0.22083        0.37449
C          0.76315        1.27626        0.33217
C          1.21724        1.93029       -0.97577
C          0.53836        1.38715       -2.23759
C         -0.98662        1.51748       -2.23890
C         -1.48512        2.96543       -2.23673
C         -1.10751        3.76529       -3.49364
C         -1.55195        3.13028       -4.82054
C         -3.04110        2.95880       -4.83363
C         -3.85231        3.66733       -5.62677
C         -5.33398        3.74699       -5.40515
C         -5.73670        5.17329       -4.99851
C         -5.39022        6.26781       -6.01857
C         -5.86890        5.97951       -7.43930
C         -7.39425        6.00376       -7.58168
C         -7.93478        7.27715       -8.22900
C         -7.44061        7.56199       -9.64914
C         -8.24113        6.87718      -10.73945
O         -9.21910        7.42747      -11.24109
N         -7.88834        5.64863      -11.20935
C         -6.85385        4.72489      -10.77283
C         -7.44756        3.43450      -10.16975
C         -7.79762        2.39775      -11.22736
O         -6.53357        2.85653       -9.23699
H          0.44759       -0.75557       -0.38297
H          0.74769       -0.62635        1.35121
H          2.08947       -0.43275        0.20929
H         -0.30172        1.46478        0.50758
H          1.29779        1.75171        1.16266
H          1.05204        3.01172       -0.90416
H          2.30087        1.79910       -1.08228
H          0.95657        1.90168       -3.11052
H          0.80066        0.33154       -2.37028
H         -1.38377        0.98585       -3.11093
H         -1.41060        0.99560       -1.37422
H         -2.57550        2.95814       -2.11842
H         -1.10995        3.49490       -1.35402
H         -1.55630        4.76441       -3.40701
H         -0.02406        3.92613       -3.51995
H         -1.22886        3.78222       -5.64185
H         -1.06318        2.16512       -4.98466
H         -3.47491        2.31028       -4.07620
H         -3.42438        4.30625       -6.39501
H         -5.86743        3.42001       -6.30274
H         -5.64184        3.06426       -4.60317
H         -6.81166        5.18854       -4.78984
H         -5.24365        5.43033       -4.05117
H         -5.80434        7.22421       -5.67857
H         -4.30220        6.40814       -6.04375
H         -5.38967        6.70432       -8.10270
H         -5.49284        5.00526       -7.76823
H         -7.72006        5.14590       -8.16692
H         -7.87906        5.87803       -6.60781
H         -9.03070        7.22718       -8.22452
H         -7.65827        8.12165       -7.58527
H         -7.56419        8.63939       -9.82764
H         -6.37429        7.37945       -9.79205
H         -8.49376        5.34909      -11.96480
H         -6.24231        4.48640      -11.65009
H         -6.18805        5.21427      -10.06185
H         -8.36015        3.66928       -9.61100
H         -6.90016        2.05094      -11.75034
H         -8.24516        1.51600      -10.75523
H         -8.50458        2.79616      -11.96037
H         -5.76286        2.51856       -9.72382
