26

C          0.48691       -0.76928       -0.67605
O          0.24536       -0.48076        0.69130
C          0.86124       -1.34033        1.65735
C          0.60536       -2.81674        1.35215
C          2.36331       -1.04481        1.83873
O          2.63667        0.09570        2.65788
C          2.61933        1.41603        2.09244
C          3.20225        1.54703        0.69122
C          1.24098        2.07604        2.23246
O          0.79126        1.97231        3.58365
H          0.20920        0.11431       -1.25786
H         -0.14338       -1.60050       -1.00264
H          1.53803       -0.99337       -0.87131
H          0.36203       -1.10712        2.60564
H          1.12439       -3.13663        0.44246
H          0.94762       -3.45316        2.17442
H         -0.46370       -2.99681        1.19661
H          2.80659       -1.88383        2.38845
H          2.90520       -0.98698        0.89226
H          3.28379        1.98162        2.75854
H          2.61964        0.99887       -0.05191
H          3.23188        2.59544        0.37705
H          4.22286        1.15075        0.66385
H          1.29414        3.13918        1.97571
H          0.48417        1.62452        1.59430
H          1.03431        1.06789        3.86476
