32

C          2.58262       -0.08019       -0.22270
C          1.13656       -0.09713        0.27603
C          0.37596       -1.27824       -0.32639
C         -1.08767       -1.30688        0.10812
C         -1.83386       -0.00459       -0.24539
C         -3.32371       -0.03228        0.21703
C         -4.08144        1.22727       -0.22523
C         -4.07885       -1.25883       -0.31346
C         -1.06461        1.25140        0.24434
O         -1.33882        1.62790        1.60321
O         -0.81307        0.60402        2.48539
C          0.44090        1.22814       -0.05844
H          3.09689       -1.00860        0.04712
H          2.62842        0.02724       -1.31184
H          3.13697        0.75216        0.22353
H          1.17408       -0.22423        1.36360
H          0.42400       -1.23436       -1.42226
H          0.85521       -2.21911       -0.02946
H         -1.15378       -1.51115        1.18231
H         -1.55719       -2.15773       -0.39827
H         -1.83463        0.04805       -1.34492
H         -3.35775       -0.07773        1.31276
H         -4.02450        1.36092       -1.31098
H         -5.13982        1.16358        0.05068
H         -3.68371        2.12729        0.25212
H         -3.70223       -2.18437        0.13204
H         -5.14417       -1.20119       -0.06394
H         -3.99172       -1.33769       -1.40239
H         -1.45541        2.10048       -0.33098
H         -1.55911        0.61046        3.11204
H          0.93841        2.04386        0.48062
H          0.57177        1.42605       -1.13092
