23

Cl        -2.61188        0.95091        0.30442
C         -1.17895        0.00595        0.19154
C         -1.24808       -1.37543        0.35116
C         -0.08859       -2.15242        0.25658
C          1.14540       -1.54369       -0.01228
O          2.34207       -2.22208       -0.14609
C          2.34325       -3.59686       -0.09980
C          2.04006       -4.34843       -1.24424
Cl         1.59523       -3.59954       -2.73443
C          2.09648       -5.74200       -1.20084
C          2.48330       -6.38803       -0.02576
C          2.82085       -5.64309        1.10919
Cl         3.31165       -6.52070        2.51537
C          2.75835       -4.24278        1.07683
Cl         3.18314       -3.29570        2.46649
C          1.19804       -0.14786       -0.15900
Cl         2.69213        0.66589       -0.47111
C          0.04089        0.62812       -0.05829
H         -2.20352       -1.85775        0.54840
H         -0.18313       -3.22462        0.39134
H          1.85120       -6.33163       -2.08191
H          2.53166       -7.47515       -0.00439
H          0.09159        1.70621       -0.17617
