20

C          0.01586       -0.28144        0.84901
C          0.60606       -1.46642        1.10233
C          1.77071       -1.53540        2.07765
C          1.34900       -1.30174        3.57633
C          0.09404       -0.45825        3.72896
C         -1.10425       -0.97300        3.37447
C         -2.00997       -0.18204        2.44446
C         -1.49650       -0.16048        0.95711
H          0.56302        0.64207        1.04446
H          0.01808       -2.38258        1.02948
H          2.23583       -2.52599        2.00075
H          2.54091       -0.81093        1.78827
H          1.21396       -2.26518        4.08156
H          2.17564       -0.79723        4.09231
H          0.25426        0.61702        3.65667
H         -1.22677       -2.05447        3.32337
H         -2.12006        0.84387        2.81510
H         -3.01256       -0.62690        2.46187
H         -1.81284        0.78071        0.49138
H         -1.97530       -0.96482        0.38625
