25

C          0.48676        0.19729        0.20502
C          0.15977       -1.26493        0.45985
O          0.97146       -1.89528        1.44747
C          2.38558       -1.80845        1.28959
C          3.02429       -2.90513        0.41450
C          2.48250       -3.01716       -1.00673
O          4.46121       -2.87448        0.38995
C          5.13438       -1.62787        0.25188
C          4.92020       -0.94324       -1.08508
H          0.59773        0.74614        1.14487
H         -0.29889        0.66678       -0.39395
H          1.42357        0.30072       -0.35250
H         -0.86969       -1.32683        0.83137
H          0.17876       -1.83204       -0.47223
H          2.68368       -0.80641        0.97910
H          2.80615       -1.92016        2.29779
H          2.78001       -3.86400        0.88809
H          2.37526       -2.04041       -1.48381
H          3.15143       -3.61595       -1.63423
H          1.50109       -3.50174       -1.01088
H          4.89024       -0.96088        1.08536
H          6.20218       -1.85124        0.34920
H          3.91886       -0.51055       -1.15287
H          5.63583       -0.12564       -1.21484
H          5.03728       -1.64984       -1.91261
