32

O          0.00978       -2.53983        0.26819
C          0.01141       -1.31925        0.16597
C          1.28362       -0.57898        0.06057
C          2.46889       -1.31821       -0.07673
C          3.69100       -0.66618       -0.18696
C          3.72974        0.72429       -0.16310
C          2.54519        1.47193       -0.02002
S          2.73098        3.24498       -0.05511
O          2.60346        3.71161        1.30670
O          3.92311        3.52204       -0.83111
O          1.48772        3.80814       -0.91158
C          1.30440        0.82058        0.09614
C          0.01792        1.52047        0.31592
O          0.02106        2.67443        0.71784
C         -1.27195        0.81884        0.12036
C         -1.26115       -0.57796        0.10501
C         -2.45680       -1.30733        0.01577
C         -3.67670       -0.64488       -0.07230
C         -3.70399        0.74665       -0.08656
C         -2.50833        1.47906        0.00793
S         -2.61497        3.24309       -0.13436
O         -2.67408        3.80296        1.19536
O         -1.66218        3.67741       -1.13264
O         -4.06447        3.52931       -0.78738
H          2.44178       -2.40746       -0.09824
H          4.61028       -1.23842       -0.29506
H          4.69425        1.22450       -0.25744
H          0.70289        3.87302       -0.30768
H         -2.43923       -2.39713        0.01242
H         -4.60251       -1.21287       -0.14217
H         -4.66554        1.25040       -0.17433
H         -4.20517        4.50012       -0.78450
