18

O         -1.70975        2.04554        0.01019
C         -1.31712        0.72612        0.00648
C         -2.30215       -0.26733        0.00730
C         -1.92725       -1.60563        0.00148
C         -0.57573       -1.94248       -0.00268
C          0.41247       -0.94117        0.00033
C          1.77467       -1.27329        0.00195
C          2.73451       -0.26993        0.00545
C          2.29848        1.03889        0.00510
N          0.99757        1.39671        0.00395
C          0.05369        0.42548        0.00324
H         -2.67695        2.09477        0.00107
H         -3.35707       -0.01148        0.01307
H         -2.68389       -2.38612        0.00103
H         -0.29438       -2.99346       -0.00735
H          2.09317       -2.31249        0.00202
H          3.79280       -0.50281        0.00859
H          3.00205        1.86626        0.00641
