28

O          1.50337        0.76561       -0.47176
C          2.48344        0.15683       -0.08067
O          3.12758       -0.79926       -0.78196
C          3.18455        0.46635        1.17299
C          4.22998        1.39479        1.13037
C          4.91563        1.73797        2.29892
N          5.94302        2.69683        2.20030
N          6.86187        2.50233        3.02180
C          7.91080        3.44424        2.92009
C          9.09826        3.16246        3.60880
C         10.18639        4.03880        3.56444
C         10.09962        5.21774        2.82849
C          8.92580        5.52212        2.14378
C          7.83902        4.64365        2.19298
C          4.51266        1.14866        3.51005
C          3.46672        0.21889        3.55246
C          2.80496       -0.12428        2.37738
O          1.80212       -1.04704        2.40011
H          3.86518       -1.21241       -0.29357
H          4.50540        1.86160        0.18695
H          9.17640        2.24455        4.18650
H         11.09927        3.79911        4.10353
H         10.94503        5.90009        2.78970
H          8.85208        6.44285        1.57054
H          6.93165        4.90692        1.65546
H          5.01636        1.41978        4.43588
H          3.19072       -0.22192        4.50621
H          1.51628       -1.19653        3.31769
