23

Cl        -2.06005       -0.06749        0.35075
C         -0.35761        0.01198        0.11691
C          0.44623       -1.05559        0.51498
C          1.82818       -0.98942        0.32648
C          2.40071        0.14885       -0.24430
O          3.76452        0.12543       -0.43144
C          4.46156        1.27650       -0.14993
C          4.35798        1.93157        1.07662
C          5.12183        3.07847        1.31769
Cl         4.92391        3.84569        2.85649
C          6.00589        3.56529        0.34133
Cl         6.94527        4.99450        0.63554
C          6.11993        2.87564       -0.87601
Cl         7.19354        3.38166       -2.13540
C          5.35469        1.73072       -1.11648
C          1.59014        1.20698       -0.66720
C          0.20758        1.14021       -0.47710
H          0.00437       -1.94021        0.96582
H          2.45672       -1.82413        0.62631
H          3.69027        1.54929        1.84521
H          5.44661        1.19252       -2.05726
H          2.01691        2.07920       -1.15415
H         -0.42225        1.96482       -0.80104
