31

C          1.35297       -0.20803        0.02432
C          0.83389        1.07365       -0.14065
C         -0.54773        1.26100       -0.22898
C         -1.43589        0.17549       -0.13937
C         -2.88767        0.39233       -0.20725
C         -3.75597       -0.10427        0.76207
C         -5.11484        0.16729        0.65338
C         -5.57207        0.92306       -0.42079
C         -4.65327        1.38329       -1.36112
C         -5.06751        2.15480       -2.54132
C         -4.68592        1.74444       -3.83009
C         -5.09459        2.45177       -4.96368
C         -5.88081        3.59264       -4.82566
C         -6.25711        4.02703       -3.55669
C         -5.85605        3.31191       -2.42425
N         -3.32580        1.12672       -1.26050
C         -0.89039       -1.10996        0.02149
C          0.49224       -1.30063        0.09969
H          2.42784       -0.35540        0.08622
H          1.50097        1.92913       -0.20515
H         -0.94114        2.26743       -0.36525
H         -3.38005       -0.67887        1.60284
H         -5.81156       -0.20631        1.39798
H         -6.63127        1.13070       -0.53058
H         -4.06527        0.85781       -3.95029
H         -4.79398        2.11129       -5.95095
H         -6.19357        4.14712       -5.70654
H         -6.85827        4.92561       -3.44628
H         -6.14875        3.67654       -1.44193
H         -1.54353       -1.97870        0.06747
H          0.89611       -2.30327        0.21355
