28

C          1.34791        0.18609        0.11858
O          0.90789       -0.78808       -0.82502
C          1.15945       -0.38668       -2.10621
C          0.07388       -0.06167       -2.91042
C          0.27276        0.26450       -4.25532
C          1.54774        0.21179       -4.81695
N          1.82828        0.45612       -6.17035
C          1.08495        0.35011       -7.31084
O          1.57305        0.79739       -8.35449
C         -0.26967       -0.30575       -7.33390
C         -0.25064       -1.76035       -6.93715
C         -1.23356       -2.22651       -5.89464
O          0.53386       -2.56101       -7.44913
C          2.63885       -0.06759       -3.98211
C          2.44633       -0.38398       -2.63291
H          0.97508       -0.11436        1.10262
H          0.93688        1.17574       -0.11023
H          2.44061        0.22404        0.16735
H         -0.92788       -0.05575       -2.48950
H         -0.59265        0.59001       -4.81513
H          2.78900        0.69489       -6.39541
H         -0.98850        0.27759       -6.75978
H         -0.64363       -0.27692       -8.36579
H         -1.78474       -3.08973       -6.27550
H         -0.68922       -2.50418       -4.98840
H         -1.95411       -1.44165       -5.65269
H          3.65028       -0.09401       -4.38208
H          3.29657       -0.65736       -2.01510
