83

C          1.81319        1.20083       -0.15305
C          0.94430        2.19940       -0.91158
C          0.87100        1.91472       -2.41712
C         -0.46089        1.40699       -3.00130
O         -1.54628        1.43257       -2.08907
C         -2.08525        0.15443       -1.73343
C         -1.27341       -0.53006       -0.63880
O         -0.64084       -1.75733       -0.94634
C          0.00903       -1.97783       -2.17458
C         -0.71083       -2.86440       -3.19773
O         -1.64359       -3.87084       -2.81777
C         -2.10304       -3.97036       -1.47858
C         -1.19667       -4.78990       -0.54435
O          0.15982       -4.31345       -0.45196
C          1.11813       -5.09142       -1.00880
O          0.92032       -6.17301       -1.53421
C          2.51083       -4.48992       -0.94737
C          2.79306       -3.08722       -0.40228
C          2.20351       -2.62957        0.93474
C          2.27093       -3.46605        2.19857
O          1.87214       -3.02850        3.26807
O          2.81459       -4.69159        2.01951
C          2.97854       -5.50833        3.19506
C          4.43857       -5.72765        3.62641
O          5.16827       -4.53819        3.88556
C          5.81471       -3.83273        2.83115
C          5.59591       -4.17616        1.35289
O          5.22817       -5.49974        1.04892
C          6.13970       -6.42462        0.48801
C          7.56778       -6.44111        1.02292
O          8.52713       -6.09509        0.01767
C          8.69922       -4.70641       -0.21223
C          8.26844       -4.23734       -1.61487
C          7.53811       -5.23424       -2.52364
C          6.06755       -4.88788       -2.73570
H          1.63514        0.17009       -0.47127
H          1.60814        1.26445        0.92154
H          2.87505        1.41745       -0.30274
H         -0.04782        2.25450       -0.45535
H          1.38396        3.19273       -0.76121
H          1.09285        2.85835       -2.93266
H          1.67943        1.23981       -2.72721
H         -0.73681        2.06818       -3.83076
H         -0.34889        0.43317       -3.48127
H         -3.07008        0.38179       -1.30882
H         -2.25757       -0.46902       -2.61477
H         -0.54772        0.13212       -0.17797
H         -1.96340       -0.78942        0.17369
H          0.44955       -1.08019       -2.60082
H          0.88171       -2.56215       -1.93710
H         -1.17771       -2.23569       -3.96152
H          0.07454       -3.41047       -3.74184
H         -2.39571       -3.00146       -1.07289
H         -3.05597       -4.51045       -1.53430
H         -1.61135       -4.74023        0.46822
H         -1.23268       -5.83985       -0.85010
H          3.13155       -5.21507       -0.41608
H          2.86181       -4.48646       -1.98924
H          3.87761       -2.95582       -0.40791
H          2.52989       -2.32821       -1.14272
H          2.71989       -1.69273        1.18866
H          1.15084       -2.37254        0.79561
H          2.41691       -5.10616        4.04366
H          2.53950       -6.48334        2.95791
H          4.39966       -6.26272        4.58299
H          4.99066       -6.41535        2.98508
H          5.48773       -2.78975        2.95888
H          6.88717       -3.80496        3.04490
H          4.73897       -3.57478        1.10112
H          6.35587       -3.77251        0.68879
H          5.69029       -7.40036        0.71041
H          6.09729       -6.34614       -0.59343
H          7.70834       -5.85208        1.93311
H          7.80325       -7.48076        1.27894
H          8.24879       -4.09946        0.57514
H          9.77127       -4.50462       -0.10588
H          7.69899       -3.30338       -1.52184
H          9.18857       -3.94305       -2.13657
H          8.01835       -5.23041       -3.50952
H          7.63238       -6.26260       -2.16438
H          5.96077       -4.06919       -3.45349
H          5.53120       -5.75518       -3.13688
H          5.57471       -4.58438       -1.80812
