30

O          0.99568        0.95298       -0.36448
C          2.11258        0.44162       -0.37490
O          3.04306        0.78836       -1.30476
C          2.59362       -0.64425        0.61343
O          1.95830       -0.61378        1.89922
C          2.58020        0.14251        2.87377
C          3.04088       -0.57950        3.98626
C          3.52477        0.07635        5.12910
C          3.54902        1.46519        5.18458
C          3.10905        2.19476        4.08846
C          2.62290        1.54743        2.94155
Cl         2.06178        2.62512        1.72879
O          2.53726       -1.93932       -0.07074
C          1.29345       -2.52622       -0.11292
C          1.10449       -3.65732        0.68850
C         -0.13468       -4.30963        0.72055
C         -1.20549       -3.81598       -0.02079
C         -1.00023       -2.74982       -0.89117
C          0.26815       -2.16780       -1.00063
Cl         0.54317       -1.20944       -2.41250
H          3.86059        0.25643       -1.27266
H          3.66895       -0.47786        0.76849
H          2.99652       -1.66607        3.98779
H          3.85531       -0.49649        5.99276
H          3.88573        1.98429        6.07892
H          3.11000        3.28286        4.14006
H          1.92927       -4.05617        1.27269
H         -0.26683       -5.20443        1.32445
H         -2.18200       -4.29133        0.03368
H         -1.81678       -2.40679       -1.52283
