18

C          0.83573        0.20763        0.01010
O          0.32960        1.37366       -0.64142
C          1.02441        2.50568       -0.36658
O          1.98350        2.59963        0.38267
C          0.49774        3.63457       -1.17256
C          1.36200        4.69670       -1.46736
C          0.91301        5.77252       -2.23465
C         -0.40253        5.79722       -2.69738
C         -1.27198        4.74878       -2.39427
C         -0.82462        3.66585       -1.63401
H          0.37234       -0.66730       -0.45429
H          0.56501        0.22737        1.06961
H          1.92076        0.12145       -0.11094
H          2.38901        4.68295       -1.10759
H          1.58956        6.59006       -2.47119
H         -0.75146        6.63682       -3.29400
H         -2.29885        4.77522       -2.75089
H         -1.51383        2.85777       -1.40200
