39

C          1.40827       -0.07499        0.25104
O          0.44509       -0.43919       -0.73328
C          1.02493       -0.53000       -2.04216
O          0.72240       -1.79818       -2.62581
C         -0.67268       -2.05896       -2.84880
C         -1.37907       -2.53506       -1.56173
N         -2.51748       -3.40513       -1.84678
C         -3.34472       -3.87171       -0.85646
O         -4.51687       -3.49207       -0.90774
N         -2.84170       -4.77183        0.07219
C         -1.52630       -5.42552        0.00596
C         -0.50329       -4.82826        0.97629
Cl        -0.45501       -5.65713        2.55049
N         -3.78255       -5.20285        1.02661
O         -3.41944       -6.16253        1.71226
C         -1.39088       -0.91830       -3.60113
O         -2.81049       -1.09180       -3.57100
C         -1.01261        0.48338       -3.10667
O         -1.70734        0.78500       -1.88149
C          0.50240        0.61343       -2.93223
O          0.82579        1.89440       -2.37972
H          0.89918       -0.00099        1.21559
H          1.85251        0.89658        0.01535
H          2.18549       -0.84171        0.32480
H          2.11790       -0.46194       -1.97959
H         -0.68175       -2.92497       -3.52492
H         -0.66108       -3.07577       -0.94745
H         -1.74914       -1.70458       -0.95421
H         -3.12872       -2.94137       -2.52093
H         -1.63572       -6.50885        0.13996
H         -1.14250       -5.30960       -1.01360
H          0.50210       -4.92899        0.55662
H         -0.69014       -3.76895        1.17472
H         -1.08037       -0.98107       -4.65192
H         -3.16684       -0.40440       -2.96819
H         -1.37232        1.23438       -3.81917
H         -1.20047        0.39205       -1.13907
H          0.98090        0.54205       -3.91610
H          0.06482        2.16895       -1.83090
