21

C          1.18879        0.16467        0.27685
N          0.37661       -0.65503        1.15688
C         -0.64278        0.01336        1.94597
C         -1.78542       -0.91203        2.29193
C         -1.19290       -2.15506        2.91112
N         -0.20545       -2.75716        2.03469
C         -0.02255       -4.19385        2.13504
C          0.62087       -2.01819        1.20469
O          1.50124       -2.54125        0.52164
H          1.21595        1.19677        0.63790
H          0.74377        0.13662       -0.72232
H          2.21216       -0.21751        0.22131
H         -0.15673        0.39706        2.85070
H         -1.02782        0.86884        1.37956
H         -2.33931       -1.17614        1.38266
H         -2.48451       -0.42662        2.98044
H         -1.98961       -2.88230        3.10382
H         -0.69949       -1.93031        3.86400
H          0.08583       -4.46944        3.18812
H         -0.91049       -4.68107        1.72085
H          0.85670       -4.54084        1.58671
