22

Cl         1.33556        1.63790       -0.14239
C         -0.11472        0.70419       -0.06047
C         -1.33187        1.38716       -0.09520
C         -2.53760        0.68122       -0.03259
C         -2.55050       -0.71896        0.06882
C         -3.81848       -1.46003        0.13699
C         -4.78291       -1.33551       -0.87331
C         -5.99261       -2.04079       -0.81137
Cl        -7.10325       -1.81015       -2.11878
C         -6.26738       -2.88882        0.26928
Cl        -7.76468       -3.76106        0.35067
C         -5.30931       -3.01800        1.28317
Cl        -5.54768       -4.03390        2.66413
C         -4.10020       -2.31228        1.21434
C         -1.31776       -1.39238        0.10368
C         -0.10764       -0.68965        0.03828
Cl         1.35570       -1.60771        0.08252
H         -1.35110        2.47234       -0.16860
H         -3.47235        1.24038       -0.05182
H         -4.58730       -0.68946       -1.72874
H         -3.37454       -2.42140        2.02001
H         -1.29650       -2.47912        0.17093
