32

C          1.44594       -0.10040       -1.09200
C          0.83361       -1.32369       -1.75358
C          1.09435       -2.63255       -1.00859
C          0.57174       -2.77201        0.43268
C         -0.96753       -2.79004        0.69462
C         -1.69946       -3.52846       -0.45037
C         -1.24027       -3.60415        1.98122
C         -1.58115       -1.36370        0.82680
C         -1.48243       -0.61525        2.16796
C         -0.08954       -0.33540        2.70372
H          0.89495        0.18432       -0.19519
H          1.41279        0.75325       -1.77687
H          2.48975       -0.27415       -0.81503
H         -0.23711       -1.16788       -1.91176
H          1.27424       -1.41858       -2.75432
H          0.71403       -3.46176       -1.61686
H          2.18212       -2.78253       -0.97349
H          0.97708       -3.73012        0.79003
H          1.05998       -2.01755        1.05327
H         -1.26988       -4.52270       -0.61879
H         -2.76099       -3.66931       -0.21422
H         -1.65267       -2.97272       -1.39167
H         -0.67767       -3.22242        2.83774
H         -2.30499       -3.58802        2.24116
H         -0.95214       -4.65420        1.85199
H         -1.19511       -0.71461        0.03742
H         -2.65848       -1.44096        0.61932
H         -1.98591        0.35161        2.03638
H         -2.05932       -1.14643        2.93336
H          0.53718        0.16123        1.96070
H         -0.15285        0.32790        3.57288
H          0.41116       -1.24794        3.03584
