25

C          0.76297       -0.26360       -0.12230
C          0.52122       -1.28286        0.97694
O          1.04938       -0.79899        2.22132
C          2.36453       -1.06095        2.46211
O          3.09347       -1.72427        1.73405
C          2.82620       -0.42350        3.76861
O          2.18494        0.79634        4.13636
C          2.79509        1.90813        3.61486
C          2.75468        2.15914        2.24139
C          3.30251        3.33301        1.72320
C          3.87477        4.26670        2.58328
Cl         4.52900        5.72169        1.94039
C          3.90668        4.03754        3.95728
C          3.36007        2.85977        4.47301
Cl         3.40938        2.60779        6.17986
H          0.34918        0.71093        0.15860
H          0.30265       -0.58293       -1.06105
H          1.83465       -0.11774       -0.29265
H         -0.55556       -1.41999        1.11839
H          0.94204       -2.26010        0.71585
H          2.61224       -1.14938        4.56158
H          3.91620       -0.29643        3.73526
H          2.27277        1.46950        1.56007
H          3.26169        3.51767        0.65233
H          4.34534        4.77581        4.62260
