43

C          1.07691       -0.35117        0.13837
C          0.37011       -1.65133        0.28099
N          1.05567       -2.79322        0.12089
N          0.13928       -3.76173        0.31193
C          0.58151       -5.13339        0.22599
C         -1.10130       -3.25809        0.56339
Cl        -2.42690       -4.29828        0.83204
C         -1.01162       -1.88217        0.56309
C         -2.06102       -0.91257        0.80393
O         -3.33666       -1.36788        0.80911
N         -1.76434        0.33072        1.00071
C         -2.80009        1.24054        1.26820
C         -3.58904        1.12781        2.42366
C         -4.61114        2.04645        2.70296
C         -4.84876        3.11314        1.83981
C         -4.04436        3.24641        0.71639
C         -3.03417        2.32945        0.43783
C         -2.30149        2.76340       -0.78343
C         -2.31379        1.77073       -1.93368
O         -2.97809        3.96953       -1.23137
C         -4.07058        4.30414       -0.33922
C         -5.36541        4.27194       -1.15008
C         -3.80827        5.69838        0.22624
H          1.01490        0.22638        1.06548
H          0.63752        0.23566       -0.67432
H          2.13774       -0.49651       -0.09219
H          0.92235       -5.31818       -0.79600
H          1.40475       -5.27288        0.93195
H         -0.22578       -5.82315        0.47427
H         -3.39105       -2.32176        0.64551
H         -3.41138        0.30818        3.11507
H         -5.21462        1.92425        3.59830
H         -5.63771        3.82724        2.05440
H         -1.27441        3.04784       -0.52972
H         -1.85728        2.21833       -2.82360
H         -1.76571        0.85643       -1.69202
H         -3.33793        1.49598       -2.20973
H         -6.23981        4.50402       -0.53250
H         -5.32497        4.99107       -1.97617
H         -5.52259        3.28648       -1.60482
H         -2.85318        5.73292        0.76371
H         -3.73789        6.43776       -0.57972
H         -4.59821        6.01463        0.91605
