28

C         -2.17448       -0.94070       -0.55525
C         -0.76921       -0.47398       -0.43824
C          0.32176       -1.23976       -0.07439
S          1.68643       -0.23108        0.15050
C          0.71152        1.13757       -0.19603
N          1.19498        2.40531        0.12391
S          0.39579        3.83737       -0.03313
O          0.89565        4.64010        1.06263
O          0.59757        4.28848       -1.40101
C         -1.35645        3.74144        0.22782
C         -2.00004        2.69834        0.88439
C         -3.40046        2.62776        0.86446
C         -4.16402        3.61522        0.23471
N         -5.56234        3.57427        0.28796
C         -3.51377        4.74835       -0.25097
C         -2.11922        4.79588       -0.29326
N         -0.49562        0.87597       -0.61801
H         -2.71509       -0.69597        0.36659
H         -2.68350       -0.45327       -1.39051
H         -2.22602       -2.02453       -0.69585
H          0.36854       -2.30203        0.11943
H          2.04132        2.44659        0.68060
H         -1.44476        1.90996        1.37900
H         -3.89196        1.77775        1.33068
H         -6.00744        4.15978       -0.41337
H         -5.93537        2.62974        0.27667
H         -4.08356        5.59002       -0.63534
H         -1.62976        5.66219       -0.73543
