35

C          2.67717        0.77821       -0.15698
C          1.23160        0.34887       -0.04308
C          1.13720       -1.07307        0.01392
C         -0.06748       -1.73219        0.06280
C         -1.21285       -0.97383        0.08290
C         -1.19090        0.45207        0.07638
C         -2.60462        0.98754        0.11510
C          0.05620        1.18591        0.01340
N          0.12853        2.67910       -0.07208
C         -1.07576        3.51275       -0.03762
N         -1.36665        4.14456        1.25858
C         -1.17732        3.61959        2.50833
C         -1.41158        4.64248        3.39701
C         -1.74039        5.74593        2.59198
N         -1.71999        5.44964        1.29022
C          1.30637        3.44735        0.13672
O          2.23325        3.10720        0.87722
C          1.38675        4.86330       -0.45862
Cl         1.20833        4.82673       -2.22617
H          2.81598        1.55063       -0.91509
H          3.06577        1.05945        0.82611
H          3.32131       -0.05110       -0.48028
H          2.03857       -1.68651       -0.00081
H         -0.11378       -2.81676        0.07661
H         -2.15987       -1.51393        0.10572
H         -2.74382        1.69162        0.93669
H         -2.88312        1.39834       -0.86047
H         -3.34474        0.20072        0.30936
H         -0.96965        4.33752       -0.74620
H         -1.97980        3.05545       -0.40026
H         -0.86627        2.59435        2.65937
H         -1.33641        4.60266        4.47460
H         -1.98384        6.75560        2.89864
H          0.65660        5.54356       -0.01552
H          2.37564        5.28321       -0.25272
