81

C          1.35389        0.17017        0.02681
C          0.67520       -1.18955        0.12235
C          0.92844       -1.93323        1.44105
N          0.50594       -1.18248        2.63730
C          0.29112       -3.34642        1.44672
O          1.00626       -4.34938        1.54930
N         -1.05443       -3.55264        1.33071
C         -2.15588       -2.59302        1.44896
C         -2.88930       -2.36145        0.11564
C         -3.71377       -3.50776       -0.43771
C         -3.09639       -2.80390        2.66861
O         -3.65783       -1.83662        3.19684
N         -3.41526       -4.02981        3.18419
C         -3.60637       -5.29183        2.47079
C         -2.79171       -6.45192        3.05820
C         -3.27544       -7.03313        4.37328
C         -5.08875       -5.64515        2.14587
O         -5.35849       -6.36398        1.17834
N         -6.14526       -5.19777        2.89626
C         -6.23713       -5.24033        4.35769
C         -6.73117       -3.92810        4.98399
C         -8.21112       -3.61392        4.87232
C         -6.91245       -6.52349        4.92373
O         -6.60669       -6.94287        6.04442
N         -7.86160       -7.23633        4.23886
C         -9.01712       -6.68007        3.52987
C         -9.20827       -7.23302        2.11002
C         -9.76116       -8.63919        1.97910
C        -10.32407       -6.63890        4.36623
O        -11.16620       -5.76324        4.14508
N        -10.61659       -7.55634        5.33653
C        -10.41777       -9.01348        5.29165
C         -9.98479       -9.56552        6.65553
C        -11.04095       -9.45520        7.74987
C        -11.68955       -9.73477        4.81579
O        -11.77470      -10.91468        4.51866
O        -12.78807       -8.94923        4.82284
H          0.93247        0.87645        0.74892
H          1.19762        0.59339       -0.97138
H          2.43104        0.09236        0.19883
H         -0.39088       -1.03338       -0.04631
H          1.02656       -1.81593       -0.70762
H          2.01224       -2.08916        1.53009
H          0.77586       -1.71666        3.46526
H          1.03357       -0.31207        2.69186
H         -1.26971       -4.53693        1.38000
H         -1.69539       -1.62943        1.67923
H         -3.54992       -1.49264        0.22393
H         -2.15564       -2.09945       -0.65524
H         -4.57099       -3.71883        0.20472
H         -4.10998       -3.23778       -1.42244
H         -3.11376       -4.41267       -0.56761
H         -4.01252       -3.88843        3.98623
H         -3.18165       -5.13418        1.48091
H         -2.76936       -7.26776        2.32469
H         -1.75255       -6.12527        3.19164
H         -4.26903       -7.47590        4.26532
H         -2.60099       -7.83276        4.69710
H         -3.29325       -6.27949        5.16501
H         -6.99525       -5.47499        2.42638
H         -5.21060       -5.34215        4.70907
H         -6.48081       -3.94217        6.05246
H         -6.17326       -3.09082        4.54643
H         -8.81478       -4.37060        5.38042
H         -8.42497       -2.65566        5.35788
H         -8.52770       -3.52780        3.82961
H         -8.07706       -8.05091        4.79610
H         -8.78921       -5.62464        3.38529
H         -9.89257       -6.56380        1.57209
H         -8.25193       -7.19223        1.57525
H        -10.76591       -8.70922        2.40278
H         -9.84338       -8.90806        0.92050
H         -9.10779       -9.37527        2.45353
H        -11.52606       -7.31873        5.72683
H         -9.64948       -9.24171        4.55612
H         -9.71992      -10.62467        6.54464
H         -9.07878       -9.04475        6.98800
H        -11.94087      -10.02530        7.49806
H        -10.64909       -9.86148        8.68808
H        -11.32853       -8.41497        7.92703
H        -13.51777       -9.53601        4.53002
