21

C          0.79434        0.06667       -0.15772
C          0.22953        0.85067        0.99154
O         -0.89146        1.36042        0.90523
N          0.90753        0.97445        2.16721
C          2.21860        0.65522        2.55809
C          2.47871        0.64370        3.93325
C          3.75522        0.34076        4.42125
C          4.79291        0.02129        3.54797
N          6.09408       -0.15323        4.02898
C          4.55538        0.12250        2.17759
C          3.27652        0.41773        1.68394
H         -0.03086       -0.26723       -0.79553
H          1.30870       -0.83175        0.19123
H          1.45497        0.69815       -0.75530
H          0.31370        1.38033        2.88210
H          1.69112        0.86377        4.64999
H          3.92780        0.35748        5.49412
H          6.13644       -0.51722        4.97590
H          6.70129       -0.66450        3.39592
H          5.37058       -0.01745        1.47189
H          3.17259        0.50961        0.61074
