32

O          0.99095       -0.12027       -0.00343
C          2.21613       -0.07673       -0.00177
C          2.95739        0.73733       -1.05921
O          4.16229        0.58080       -1.21947
C          2.20899        1.61953       -1.97592
C          2.50379        1.52919       -3.34310
C          1.78747        2.31561       -4.25224
N          2.08497        2.22016       -5.68726
O          2.97673        1.43645       -6.03986
O          1.42374        2.92852       -6.45930
C          0.78757        3.19135       -3.80473
C          0.52036        3.29697       -2.43609
C          1.24107        2.52157       -1.52569
O          1.03706        2.69244       -0.18724
C          3.01817       -0.86721        0.96581
C          4.11261       -0.27856        1.61522
C          4.88178       -1.04784        2.49925
N          6.04818       -0.44905        3.16084
O          6.21326        0.77247        3.04180
O          6.79167       -1.20198        3.80574
C          4.55635       -2.38745        2.75465
C          3.45727       -2.96483        2.11593
C          2.69656       -2.20817        1.22213
O          1.66350       -2.80537        0.55839
H          3.27945        0.84301       -3.68076
H          0.22222        3.80526       -4.50426
H         -0.23427        4.00234       -2.09694
H          0.13883        3.03975       -0.04458
H          4.36979        0.76094        1.41947
H          5.15074       -2.99289        3.43714
H          3.22241       -4.00861        2.30847
H          1.47460       -3.67618        0.94491
