20

C          0.55927       -0.03370       -0.14693
O          0.61673       -0.55664        1.16964
P          1.19340       -2.18265        1.29789
O          2.53427       -1.73450        0.72042
O          1.24806       -2.04963        2.93558
C          1.66467       -0.83721        3.54501
O          1.77007       -3.80866        1.42613
C          3.12358       -4.23815        1.52737
Br         4.01224       -4.24883       -0.22915
C          4.03310       -3.87279        2.72404
Cl         3.15848       -4.02706        4.29150
Cl         5.40512       -5.07492        2.85220
Br         4.90413       -2.13109        2.66519
H         -0.16323        0.78589       -0.16525
H          0.24767       -0.80356       -0.85721
H          1.53935        0.36220       -0.42780
H          2.39058       -0.29722        2.92928
H          0.79329       -0.20253        3.72600
H          2.12976       -1.06553        4.50612
H          2.97864       -5.32221        1.63272
