14

O          1.08018       -0.44558       -0.21230
N          2.23371       -0.08636        0.05032
O          2.94882       -0.52878        0.95738
C          2.83071        0.89401       -0.82469
C          3.84932        0.46351       -1.68352
C          4.43899        1.38663       -2.54869
Cl         5.68811        0.81810       -3.59571
C          4.01026        2.72229       -2.54558
Cl         4.69749        3.91368       -3.59051
C          2.99380        3.13434       -1.67292
C          2.39657        2.21874       -0.80249
Cl         1.17745        2.79988        0.26906
H          4.17629       -0.57472       -1.67819
H          2.67172        4.17444       -1.67203
