22

O          1.32950       -0.32622        0.24906
N          2.51885       -0.03549        0.06404
O          3.22800       -0.48714       -0.84471
C          3.13293        0.91751        0.99231
C          4.30061        1.59211        0.61953
C          4.87636        2.52887        1.49140
C          4.30840        2.81025        2.74656
N          4.79686        3.81163        3.62103
C          5.95223        4.65449        3.33898
C          6.04554        3.54037        4.33868
C          3.14789        2.08400        3.09375
N          2.53607        2.26732        4.40154
O          3.23940        2.05973        5.40008
O          1.32433        2.52640        4.41796
C          2.54657        1.14850        2.23615
H          4.76567        1.41705       -0.35005
H          5.76768        3.04481        1.14676
H          6.46788        4.54722        2.39880
H          5.83966        5.66588        3.70677
H          5.97777        3.77698        5.39220
H          6.55637        2.62612        4.07238
H          1.64558        0.61935        2.54259
