7

C          0.98710       -0.07143       -0.11130
C          0.28822       -0.66106       -1.08785
C         -1.23178       -0.66106       -1.08785
N         -2.49275       -0.66106       -1.08785
H          0.49779        0.43004        0.71924
H          2.07244       -0.07894       -0.12374
H          0.76591       -1.16387       -1.92060
