24

C          0.18835        0.08716        0.16294
C          0.43641        0.85450       -1.12788
S          1.08211       -0.19640       -2.46272
C          2.82784       -0.15755       -2.22014
S          3.56573       -0.39691       -0.74094
O          3.52928        0.02436       -3.37734
C          4.96299        0.00979       -3.56807
C          5.57809        1.40700       -3.60398
C          5.31746        2.23116       -2.38104
O          6.11370        2.49423       -1.49948
O          4.07303        2.74839       -2.35215
C          5.79647       -1.06280       -2.85882
O          5.63551       -2.26911       -2.97002
O          6.71949       -0.57738       -2.01092
H         -0.22956       -0.90825       -0.01895
H         -0.51874        0.63581        0.79368
H          1.10129       -0.02467        0.75301
H         -0.52612        1.24137       -1.48055
H          1.08064        1.72361       -0.95804
H          5.05858       -0.32439       -4.61307
H          6.66352        1.35927       -3.75390
H          5.17916        1.97067       -4.45716
H          4.06296        3.28481       -1.53065
H          7.03130       -1.35947       -1.50672
