35

C          0.61160        0.00755       -0.00982
O         -0.02716        0.43966       -1.20370
C          0.64963        1.33701       -1.98349
C         -0.11612        1.90074       -3.00807
C          0.42992        2.83542       -3.88666
O         -0.44308        3.33719       -4.81154
C          0.05055        4.34586       -5.68564
C          1.77399        3.17501       -3.75928
C          2.56990        2.59907       -2.74948
C          3.99364        3.05774       -2.67189
O          4.19074        4.21304       -3.05035
N          4.99668        2.17615       -2.26496
O          4.65948        0.82604       -2.02249
C          6.37992        2.48692       -2.08523
C          7.32042        1.45741       -1.90337
C          8.68824        1.73439       -1.78200
C          9.14095        3.04897       -1.81573
C          8.22581        4.08449       -1.96259
C          6.86070        3.80426       -2.09615
C          1.98970        1.70364       -1.84124
H         -0.06678       -0.68536        0.49744
H          0.79226        0.85326        0.66148
H          1.53763       -0.53514       -0.22423
H         -1.16277        1.62100       -3.10952
H          0.39164        5.22478       -5.12810
H          0.84444        3.95173       -6.32829
H         -0.77445        4.66188       -6.33144
H          2.23108        3.89746       -4.42989
H          4.76260        0.44275       -2.91217
H          7.01144        0.41633       -1.87076
H          9.39900        0.92023       -1.66459
H         10.20143        3.26782       -1.72296
H          8.56618        5.11716       -1.97604
H          6.19252        4.65454       -2.19271
H          2.58610        1.30896       -1.02696
