29

O          1.14081       -0.07190       -0.15806
C          2.37089       -0.07143       -0.08578
C          3.23020       -1.12785       -0.75860
N          3.98805       -1.88394        0.23039
C          4.92557       -1.29573        0.89870
C          5.64758       -2.11035        1.93517
C          5.78020       -3.48453        1.76929
C          6.44761       -4.20673        2.75402
C          6.93842       -3.54058        3.87197
C          6.74901       -2.17031        3.95809
N          6.12405       -1.43634        3.01254
C          5.33068        0.13489        0.72979
C          6.70261        0.44316        0.75360
C          7.12415        1.77040        0.75674
Br         8.97107        2.16835        0.80556
C          6.19444        2.80389        0.74399
C          4.83121        2.50496        0.69611
C          4.39006        1.17407        0.64474
N          3.00695        0.98632        0.50845
H          3.87292       -0.67397       -1.52136
H          2.56136       -1.81950       -1.28277
H          5.37671       -3.98114        0.89305
H          6.57559       -5.28086        2.65261
H          7.45203       -4.07817        4.66172
H          7.10533       -1.61068        4.81873
H          7.44308       -0.35185        0.80085
H          6.51725        3.84190        0.75995
H          4.11973        3.32721        0.65894
H          2.38001        1.75122        0.72494
