26

C          0.99076       -0.14194       -0.01212
C          0.39638       -0.16050        1.36313
O         -0.33134        0.71749        1.80243
O          0.78260       -1.28956        2.01553
C          0.31465       -1.53843        3.36082
C          0.82779       -0.48778        4.34365
C         -1.20967       -1.73426        3.43794
C         -1.75047       -2.84381        2.51177
C         -1.27415       -4.23281        2.94213
C         -3.28103       -2.80938        2.49699
H          0.70313        0.78440       -0.51811
H          0.61120       -0.98781       -0.59056
H          2.08108       -0.17613        0.05311
H          0.79355       -2.47997        3.65169
H          0.39386        0.49894        4.16029
H          0.59078       -0.77181        5.37400
H          1.91417       -0.38187        4.25326
H         -1.49162       -1.95587        4.47550
H         -1.71217       -0.79474        3.18076
H         -1.40576       -2.66319        1.48652
H         -1.55019       -4.44201        3.98141
H         -1.72157       -5.00960        2.31264
H         -0.18832       -4.32957        2.85190
H         -3.64423       -1.84159        2.13529
H         -3.68163       -3.58299        1.83313
H         -3.69295       -2.97479        3.49828
