21

N          0.95126       -0.25740       -0.05719
C          0.24572       -0.74301       -1.12205
O         -0.92778       -0.44337       -1.29626
C          0.97852       -1.60701       -2.08167
C          0.56807       -1.60888       -3.42206
C          1.23448       -2.39554       -4.36417
C          2.30301       -3.19826       -3.96786
C          2.68966       -3.21799       -2.62350
S          4.02431       -4.26622       -2.12875
N          3.42054       -5.79544       -2.46502
O          5.13301       -4.05472       -3.02786
O          4.16338       -4.20920       -0.69243
C          2.03939       -2.42264       -1.67464
H          0.47347        0.41634        0.52819
H          1.95989       -0.28541       -0.00955
H         -0.27065       -0.98836       -3.73455
H          0.91646       -2.38226       -5.40419
H          2.82196       -3.81043       -4.70221
H          4.00632       -6.25683       -3.16179
H          3.31435       -6.32765       -1.60061
H          2.33915       -2.46260       -0.63080
