29

C          1.03271        0.02311        0.00983
C          0.69073       -1.33668       -0.54487
N          1.24325       -2.37640       -0.00819
C          0.93153       -3.62521       -0.50898
O          1.40834       -4.65262       -0.03775
C         -0.00377       -3.70708       -1.66486
C         -0.32402       -5.07066       -2.25518
N         -0.58969       -6.20187       -2.74490
C         -0.55467       -2.58304       -2.19077
N         -1.42877       -2.46416       -3.26397
C         -1.98517       -3.42349       -4.21119
C         -3.35537       -3.89959       -3.81179
C         -3.68837       -5.25860       -3.78657
C         -4.98963       -5.65565       -3.48297
C         -5.93136       -4.67552       -3.22597
N         -5.65891       -3.35420       -3.25167
C         -4.38472       -3.00191       -3.54320
N         -0.19188       -1.40232       -1.58472
H          0.62603        0.11203        1.02074
H          0.61292        0.81753       -0.61405
H          2.11922        0.13994        0.04781
H         -1.71822       -1.51309       -3.46263
H         -2.08831       -2.91990       -5.18130
H         -1.30078       -4.25077       -4.41091
H         -2.94604       -6.02259       -4.00859
H         -5.26136       -6.70551       -3.45476
H         -6.96005       -4.93445       -2.99166
H         -4.21709       -1.92935       -3.56851
H         -0.59210       -0.55322       -1.95841
