30

C          0.86661        0.20359        0.08526
C          0.37900        1.17437       -0.98309
C          0.98560        0.92126       -2.36553
N          0.54573       -0.30813       -2.99335
C          1.07320       -1.55035       -2.73602
N          0.49489       -2.48824       -3.45470
C         -0.39541       -1.81432       -4.23126
C         -0.38268       -0.47251       -3.98572
C         -1.20584        0.44266       -4.70024
O         -1.22352        1.65114       -4.47906
N         -1.98827       -0.17442       -5.68599
C         -2.81364        0.70621       -6.49067
C         -2.04438       -1.55798       -5.94288
O         -2.79130       -2.02339       -6.80822
N         -1.21689       -2.37843       -5.17651
C         -1.21231       -3.81712       -5.37302
H          0.45517       -0.79834       -0.06841
H          0.54640        0.53924        1.07673
H          1.95929        0.13398        0.08915
H         -0.71545        1.13957       -1.03176
H          0.65512        2.18836       -0.66945
H          0.73893        1.75274       -3.03184
H          2.07993        0.88406       -2.30736
H          1.86417       -1.71166       -2.01441
H         -3.49671        1.25450       -5.83408
H         -2.16668        1.43080       -6.99667
H         -3.39791        0.17266       -7.24428
H         -0.19924       -4.14142       -5.63121
H         -1.52675       -4.30264       -4.44345
H         -1.89140       -4.12312       -6.17283
