68

C         -1.27985       -1.90004       -0.22628
C         -0.13789       -2.71478       -0.84356
O          0.98107       -2.63430        0.04425
C          2.25347       -2.72015       -0.47292
C          2.63930       -3.77132       -1.32768
C          3.99784       -4.00064       -1.63641
N          4.33345       -4.99857       -2.59180
N          4.95897       -5.92201       -2.04844
C          5.74009       -6.76676       -2.87818
C          6.62184       -7.63240       -2.17875
Br         6.78192       -7.54722       -0.27359
C          7.42481       -8.59186       -2.81431
C          7.38027       -8.70989       -4.20083
N          8.16643       -9.75798       -4.86650
O          8.90970      -10.45204       -4.15959
O          8.02916       -9.88806       -6.08916
C          6.57291       -7.85054       -4.94671
C          5.76787       -6.89028       -4.28226
N          4.93634       -6.09365       -5.16683
O          4.11957       -6.72491       -5.85355
O          5.19975       -4.89663       -5.29660
C          4.96487       -3.22781       -0.94969
N          6.36847       -3.42901       -0.99359
C          7.11522       -3.64231       -2.13087
C          8.56158       -3.93206       -1.83040
O          6.71311       -3.59342       -3.28575
C          4.55948       -2.16694       -0.12146
C          3.21330       -1.80126        0.02565
N          2.92935       -0.48234        0.44570
C          3.55256        0.03989        1.68199
C          4.16287        1.44886        1.48391
O          3.13603        2.47001        1.47065
C          2.77378        3.20401        0.39458
C          3.71357        3.28400       -0.76763
O          1.69829        3.79715        0.38078
C          1.63721        0.11239        0.06196
C          1.51970        0.48939       -1.43213
O          1.70754       -0.58172       -2.37410
C          2.74175       -0.63135       -3.24574
C          4.07015       -0.07599       -2.82392
O          2.59726       -1.15168       -4.34852
H         -1.39919       -2.13087        0.83874
H         -2.22709       -2.07420       -0.74167
H         -1.08339       -0.82372       -0.28567
H         -0.45073       -3.75856       -0.92968
H          0.08953       -2.32225       -1.83770
H          1.88669       -4.43018       -1.75177
H          8.06338       -9.24400       -2.21954
H          6.54270       -7.92540       -6.03521
H          6.88848       -3.07849       -0.19969
H          8.66803       -4.98146       -1.54540
H          9.16220       -3.74146       -2.72458
H          8.93108       -3.28984       -1.02672
H          5.32915       -1.52011        0.28909
H          2.79694        0.06573        2.47612
H          4.35325       -0.62032        2.03376
H          4.78641        1.68140        2.35378
H          4.81106        1.48332        0.60681
H          4.03842        2.30003       -1.09682
H          3.17808        3.72432       -1.61723
H          4.56720        3.91456       -0.52156
H          0.81968       -0.50084        0.41691
H          1.46202        1.02945        0.62580
H          0.49314        0.83713       -1.59577
H          2.16045        1.32864       -1.69465
H          4.83802       -0.83913       -2.98827
H          4.30465        0.81443       -3.41012
H          4.10926        0.18328       -1.77014
