23

C          1.29640       -0.08281       -0.07296
C          0.40101        0.69573       -1.00099
O         -0.69377        0.25437       -1.34402
C          0.86341        2.02034       -1.51151
C         -0.05116        2.82008       -2.20525
C          0.33974        4.06420       -2.69566
C          1.64664        4.51659       -2.49971
C          2.57333        3.73039       -1.81210
N          3.91078        4.11671       -1.59309
C          4.48397        5.33017       -1.86605
N          5.82449        5.32404       -1.60683
O          3.95148        6.34983       -2.27588
C          2.17590        2.47724       -1.32249
H          0.73526       -0.92537        0.34335
H          1.61990        0.54330        0.76278
H          2.15587       -0.47551       -0.62189
H         -1.07260        2.47904       -2.36550
H         -0.37250        4.68565       -3.23354
H          1.91286        5.48939       -2.90358
H          4.49498        3.48668       -1.06433
H          6.26765        6.19270       -1.88436
H          6.33840        4.50131       -1.88644
H          2.89939        1.86124       -0.79827
