27

O          0.93425       -0.25511       -0.20576
S          2.36764       -0.12586       -0.01653
O          2.90943        0.94021        0.80759
C          2.93184       -1.65671        0.69431
C          2.23694       -2.83999        0.41320
C          2.64866       -4.03721        0.99925
C          3.72857       -4.04636        1.88398
C          4.38998       -2.85507        2.17612
O          5.43069       -2.82276        3.05596
C          4.00488       -1.65617        1.58738
C          3.06386        0.07524       -1.63850
C          3.49399       -1.02230       -2.39018
C          4.00437       -0.81724       -3.67455
C          4.08779        0.47347       -4.20090
C          3.66455        1.55621       -3.43486
O          3.72593        2.83059       -3.91394
C          3.15681        1.37101       -2.15521
H          1.37648       -2.83485       -0.25336
H          2.11891       -4.96087        0.77771
H          4.03182       -4.98372        2.34102
H          5.52343       -3.69813        3.46719
H          4.52704       -0.73769        1.84419
H          3.42963       -2.03769       -2.01324
H          4.33141       -1.66637       -4.27065
H          4.48036        0.61398       -5.20355
H          4.07499        2.81130       -4.82007
H          2.82590        2.22925       -1.57471
