31

C          1.02534       -0.38661        0.36401
O          0.39855       -0.63423        1.61719
N          0.93045       -1.81141        2.15364
C          0.43849       -2.11296        3.32690
C         -0.61487       -1.24018        4.00517
C         -2.03898       -1.73748        3.92593
C         -2.44564       -2.86979        3.21445
C         -3.77265       -3.28944        3.27839
C         -4.66454       -2.54462        4.03025
N         -4.32467       -1.42502        4.69967
C         -3.02712       -1.05027        4.63124
C          0.95273       -3.40212        3.96904
C          1.94805       -4.08068        3.22183
C          2.47044       -5.31544        3.61812
C          2.00403       -5.91068        4.77697
Cl         2.60860       -7.44489        5.25961
C          1.04866       -5.26380        5.55095
C          0.53258       -4.01033        5.16747
Cl        -0.58917       -3.35619        6.30415
H          0.65110        0.56185       -0.02987
H          0.78146       -1.18496       -0.34346
H          2.11045       -0.31206        0.48836
H         -0.31398       -1.08605        5.04576
H         -0.59753       -0.23055        3.57908
H         -1.74596       -3.44888        2.61859
H         -4.10161       -4.18162        2.75768
H         -5.70665       -2.83769        4.11636
H         -2.79059       -0.15067        5.19469
H          2.33575       -3.65536        2.29587
H          3.22874       -5.80097        3.00870
H          0.69824       -5.73865        6.46593
