17

C         -2.06931       -0.04212       -0.03877
N         -0.62655       -0.09129       -0.03604
C          0.15905       -1.20242       -0.03236
C          1.47097       -0.75949       -0.05076
C          2.68435       -1.57633       -0.06211
O          3.78316       -1.02965       -0.08252
Cl         2.49104       -3.32081       -0.04848
C          1.36171        0.66818       -0.05831
C          2.46583        1.69275       -0.07577
F          2.35470        2.52315       -1.15239
F          2.41620        2.49240        1.02822
N          0.06966        1.05128       -0.04831
H         -2.39742        0.54597        0.82192
H         -2.39427        0.42517       -0.97172
H         -2.46747       -1.05745        0.02972
H         -0.27099       -2.19526       -0.02140
H          3.46280        1.25752       -0.11120
