18

O          1.01822       -0.26827        0.23635
C          2.22663       -0.17403        0.10061
O          2.96164        0.79482        0.68593
C          3.01900       -1.10632       -0.75126
C          4.16912       -1.58221       -0.25927
C          4.94065       -2.56960       -1.02018
O          6.02446       -2.96093       -0.61775
C          4.33465       -3.08452       -2.30346
O          4.77189       -4.09124       -2.84319
C          3.23874       -2.22200       -2.86553
C          3.79886       -1.29530       -3.92317
O          3.50316       -1.27696       -5.10632
O          4.69572       -0.40795       -3.43634
O          2.45372       -1.47597       -1.94880
H          3.87299        0.89590        0.35434
H          4.56743       -1.31827        0.71398
H          2.54141       -2.90112       -3.37112
H          4.95449        0.11640       -4.22908
