35

O          0.94331       -0.48818        0.24662
C          2.16625       -0.40444        0.23942
O          2.79300        0.79331        0.20209
C          4.16548        0.97258       -0.16713
C          5.16082        1.06663        0.99476
O          6.24619        0.48321        0.93529
N          4.83645        1.86178        2.07194
C          3.53819        2.42755        2.38840
C          3.82950        3.41700        3.49931
C          4.97772        2.76304        4.26361
C          5.77450        2.01321        3.18787
C          7.05321        2.78608        2.85268
O          8.01864        2.90458        3.59461
O          7.03681        3.42957        1.66731
C          2.98314       -1.63144        0.27162
C          3.90642       -1.85479        1.29679
C          4.67166       -3.02015        1.29467
C          4.47847       -3.97919        0.29999
C          3.51634       -3.78012       -0.69150
C          2.76470       -2.60546       -0.70747
H          4.49022        0.18988       -0.86181
H          4.23024        1.91885       -0.71687
H          2.90174        1.61146        2.75167
H          3.07215        2.89539        1.51871
H          4.16071        4.36987        3.07034
H          2.95637        3.60965        4.12935
H          5.56515        3.50684        4.81203
H          4.57434        2.05018        4.99213
H          6.07335        1.01567        3.53106
H          7.93414        3.81598        1.60043
H          4.03852       -1.13436        2.09857
H          5.41639       -3.18170        2.07054
H          5.07195       -4.89043        0.30546
H          3.35087       -4.54229       -1.44890
H          2.00753       -2.45420       -1.47371
