52

O         -1.45526        2.15819        0.27716
C         -1.52099        0.93892        0.19827
C         -2.76859        0.20764       -0.12660
C         -4.04397        0.93214       -0.15837
C         -4.29323        1.86523       -1.17983
C         -5.43854        2.66663       -1.15219
C         -6.32937        2.53261       -0.09562
O         -7.44750        3.31251        0.00927
C         -6.09248        1.60003        0.91183
O         -6.96382        1.49449        1.95866
C         -4.96254        0.79343        0.88939
C         -2.66172       -1.11027       -0.35055
O         -1.49495       -1.85122       -0.32752
C         -0.36001       -1.23525        0.14806
C          0.79119       -2.01155        0.32939
C          1.93365       -1.42597        0.88277
O          3.04730       -2.17817        1.10201
C          4.19306       -1.87704        0.26514
O          3.94066       -1.39226       -1.03757
C          4.22810       -0.03485       -1.37907
C          2.99309        0.47114       -2.15687
O          2.99126        1.87090       -2.38676
C          4.75132        0.93834       -0.29544
O          3.75017        1.88632        0.10962
C          5.42278        0.31219        0.93140
O          4.94327        0.95114        2.13229
C          5.34154       -1.20790        1.03741
O          5.38619       -1.59475        2.42428
C          1.89210       -0.11370        1.33101
C          0.78648        0.67945        1.06915
O          0.86836        1.99356        1.43721
C         -0.33678        0.12072        0.46755
H         -3.57038        2.00243       -1.98252
H         -5.59597        3.39550       -1.94039
H         -7.44054        3.94880       -0.72679
H         -7.63744        2.18250        1.78559
H         -4.78397        0.10447        1.70991
H         -3.50195       -1.75201       -0.58926
H          0.79182       -3.06279        0.05525
H          4.56842       -2.89165        0.07758
H          5.04523       -0.10550       -2.10975
H          2.94121       -0.03443       -3.12759
H          2.06680        0.20339       -1.63974
H          2.96855        2.27185       -1.48723
H          5.50463        1.56963       -0.78583
H          3.93069        2.07972        1.05749
H          6.48876        0.57294        0.90206
H          5.19437        0.34409        2.86177
H          6.26904       -1.58067        0.58274
H          4.56588       -2.09872        2.60583
H          2.72092        0.31276        1.87439
H          0.09006        2.46347        1.05931
