18

O          0.69018       -0.11118       -0.16643
N          1.90657        0.03660       -0.08817
O          2.56963        1.04737        0.15587
O          2.62444       -1.14720       -0.36912
C          4.03007       -1.05372       -0.11794
C          4.79189       -0.59165       -1.37348
O          4.60824        0.80376       -1.63935
C          6.30496       -0.84283       -1.28296
O          6.61439       -2.23177       -1.33569
N          7.03251       -2.78457       -0.10348
O          6.87908       -2.09329        0.90394
O          7.42828       -3.94195       -0.21227
H          4.25790       -0.43383        0.75821
H          4.32953       -2.07363        0.13931
H          4.38832       -1.12914       -2.23946
H          4.04257        1.21387       -0.95420
H          6.77884       -0.39536       -2.16630
H          6.75222       -0.29831       -0.44161
