34

O          1.03720        0.14815        0.05943
N          2.23906        0.14650       -0.23581
O          2.86524       -0.82645       -0.67575
C          2.98302        1.39185       -0.03400
C          4.16357        1.61780       -0.75480
C          4.89542        2.79048       -0.53041
C          4.46534        3.74088        0.40945
N          5.27249        4.85192        0.68240
N          4.97065        5.82729       -0.03728
C          5.64297        7.08402        0.37540
C          7.04352        6.85826        0.87315
C          8.15506        7.32696        0.28807
C          9.44564        7.02366        0.80204
C          9.88914        5.93568        1.55637
C         11.27335        6.10036        1.80607
C         11.60201        7.28137        1.19552
N         12.83639        7.99325        1.10585
O         12.84104        9.07770        0.51337
O         13.81628        7.45505        1.64334
O         10.53405        7.83998        0.57346
C          3.27874        3.48535        1.11316
N          2.81295        4.43137        2.11514
O          3.63363        4.86250        2.93537
O          1.60375        4.69850        2.10786
C          2.51961        2.32597        0.89715
H          4.52801        0.89179       -1.48089
H          5.81974        2.96104       -1.08118
H          5.63685        7.76759       -0.48068
H          5.05050        7.55772        1.16722
H          7.10982        6.27179        1.78769
H          8.10076        7.95947       -0.59328
H          9.27217        5.10687        1.87953
H         11.93602        5.44754        2.35773
H          1.60525        2.15116        1.46228
