79

C          1.08363        0.04635        0.56404
C          0.93571        1.30695       -0.27380
C          1.37225        1.10635       -1.72707
C          0.58313        0.03050       -2.48032
C         -0.92445        0.29565       -2.53946
C         -1.28808        1.57909       -3.29270
C         -0.86506        1.55615       -4.76506
C         -1.51687        0.41910       -5.55864
C         -3.04518        0.52059       -5.59517
C         -3.53550        1.79381       -6.29157
C         -3.08765        1.87323       -7.75416
C         -3.62992        0.71380       -8.59589
C         -5.16012        0.70919       -8.66797
C         -5.71881        1.97594       -9.32286
C         -5.22547        2.15582      -10.76192
C         -5.67530        1.01754      -11.68433
C         -7.19938        0.91725      -11.80655
C         -7.83390        2.19879      -12.35133
C         -7.39794        2.50515      -13.78582
C         -7.90742        1.49046      -14.81888
C         -9.41854        1.23840      -14.80410
C        -10.20168        2.40137      -15.35405
O        -10.93876        2.33524      -16.33037
O         -9.95110        3.54156      -14.66739
C        -10.38748        4.78090      -15.26241
C         -9.51006        5.16229      -16.47308
O         -9.79814        4.37053      -17.63171
C         -9.71278        6.62692      -16.86908
O         -9.26273        7.51003      -15.84963
H          0.42321       -0.75225        0.21245
H          0.82347        0.25191        1.60624
H          2.11424       -0.32063        0.53285
H         -0.10122        1.65813       -0.22765
H          1.54650        2.10181        0.16879
H          1.29372        2.06407       -2.25528
H          2.43553        0.83988       -1.75020
H          0.99059       -0.05999       -3.49385
H          0.75283       -0.94806       -2.01838
H         -1.41658       -0.56703       -3.00241
H         -1.34190        0.34565       -1.52849
H         -2.36892        1.74171       -3.21332
H         -0.83555        2.44873       -2.80491
H         -1.10565        2.52399       -5.21874
H          0.22340        1.47114       -4.84791
H         -1.10748        0.41347       -6.57452
H         -1.23260       -0.55291       -5.14289
H         -3.45016       -0.36825       -6.09065
H         -3.45971        0.48386       -4.58261
H         -4.62734        1.84234       -6.22045
H         -3.18327        2.68395       -5.76016
H         -3.39996        2.83582       -8.17235
H         -1.99514        1.88654       -7.82388
H         -3.19483        0.76553       -9.59923
H         -3.28684       -0.24770       -8.20076
H         -5.49049       -0.18251       -9.21085
H         -5.59416        0.60124       -7.66845
H         -6.81279        1.94506       -9.28856
H         -5.44965        2.86219       -8.73841
H         -5.56938        3.12341      -11.14090
H         -4.13339        2.22857      -10.79091
H         -5.21991        1.15664      -12.67000
H         -5.28312        0.05807      -11.33049
H         -7.45266        0.06376      -12.44423
H         -7.64299        0.68660      -10.83156
H         -8.92297        2.12173      -12.28066
H         -7.58435        3.05312      -11.71325
H         -7.72055        3.51677      -14.04644
H         -6.30552        2.55347      -13.85402
H         -7.60344        1.83430      -15.81508
H         -7.39475        0.53425      -14.65869
H         -9.62609        0.37818      -15.45211
H         -9.80519        0.97124      -13.81714
H        -11.44732        4.70650      -15.52722
H        -10.28836        5.53282      -14.47230
H         -8.45797        4.99049      -16.21493
H        -10.35724        3.60751      -17.37668
H         -9.15245        6.84724      -17.78464
H        -10.76701        6.82940      -17.09292
H        -10.04527        7.85274      -15.38572
