19

C          1.03740        0.06736        0.10702
C          0.65001       -0.54713       -1.18425
C          0.13438        0.09674       -2.29166
O         -0.10164       -0.77883       -3.30150
C          0.26422       -2.00949       -2.85251
C          0.18311       -3.19324       -3.58394
C          0.61163       -4.35920       -2.93976
C          1.09110       -4.30811       -1.63112
O          1.51153       -5.44010       -0.99231
C          1.16418       -3.10860       -0.91627
C          0.73724       -1.92590       -1.54766
H          0.63000       -0.50536        0.94630
H          0.66285        1.09302        0.18706
H          2.12746        0.09391        0.20324
H         -0.11059        1.12760       -2.50751
H         -0.19379       -3.20036       -4.59927
H          0.56267       -5.30040       -3.47973
H          1.40716       -6.19516       -1.59432
H          1.54170       -3.09833        0.10090
