11

O         -2.29961        0.51033        0.02952
C         -1.14762        0.10565        0.02361
C         -0.71352       -1.35177        0.01567
N          0.71547       -1.19362        0.00868
C          1.08599        0.12985        0.01220
O          2.23310        0.53674        0.00589
N         -0.03508        0.88798        0.02282
H         -1.03330       -1.86062       -0.89478
H         -1.02361       -1.86751        0.92562
H          1.40456       -1.93425       -0.00080
H         -0.03672        1.89298        0.02618
