36

C          0.94185        0.09056       -0.37469
C          0.56374       -1.11008        0.46938
O          1.00563       -0.90279        1.81737
C          2.25540       -1.36215        2.10918
O          2.98761       -1.96237        1.33248
C          2.57759       -1.12643        3.57607
O          2.10507        0.10398        4.12701
C          2.88517        1.16178        3.80828
O          3.78019        1.17295        2.97705
C          2.46628        2.37103        4.54023
C          2.24758        3.51118        3.74332
C          1.87475        4.72462        4.32136
C          1.72987        4.81571        5.70103
C          1.95131        3.69142        6.49979
C          2.32480        2.45523        5.93439
C          2.51336        1.34043        6.90100
O          1.99661        1.34778        8.00929
O          3.32229        0.36991        6.42224
C          3.37253       -0.83814        7.19894
C          4.64501       -0.87182        8.01653
H          0.54439        1.00979        0.06823
H          0.55264       -0.01049       -1.39130
H          2.02942        0.20536       -0.42357
H         -0.52550       -1.21509        0.50116
H          0.96309       -2.03938        0.04689
H          2.11711       -1.93970        4.14639
H          3.66267       -1.21188        3.71917
H          2.36763        3.45281        2.66193
H          1.70269        5.59757        3.69548
H          1.44664        5.76081        6.15965
H          1.83570        3.78669        7.57968
H          2.48909       -0.95731        7.83724
H          3.36472       -1.67533        6.49334
H          4.68331       -0.02736        8.71112
H          4.71202       -1.80301        8.58644
H          5.52048       -0.79429        7.36399
