40

C          1.45002        0.95376        0.59591
O          0.52559        0.49045        1.56845
C          0.94986       -0.69908        2.23789
C          0.24954       -1.92707        1.65224
O          0.80080       -2.21737        0.35661
C          0.06870       -1.87206       -0.72919
O         -1.09054       -1.47848       -0.70775
C          0.84227       -2.06769       -2.01527
C          2.36954       -2.04855       -1.90576
C          3.02994       -3.22753       -1.17278
C          2.47530       -4.62455       -1.46536
C          2.72606       -5.17581       -2.85242
O          2.70213       -6.37420       -3.10237
O          2.93651       -4.18935       -3.75618
C          3.34970       -4.57357       -5.07848
C          4.84768       -4.30622       -5.23955
O          5.61274       -5.26395       -4.50430
C          6.09063       -4.77336       -3.26092
H          0.91290        1.57004       -0.12989
H          1.92641        0.13207        0.06346
H          2.22122        1.56023        1.07712
H          2.04121       -0.80400        2.19655
H          0.65931       -0.59369        3.28751
H          0.45430       -2.79960        2.28144
H         -0.83520       -1.78532        1.61310
H          0.49161       -2.98602       -2.49491
H          0.55863       -1.23191       -2.66794
H          2.77840       -1.98267       -2.92056
H          2.70130       -1.12402       -1.42375
H          4.10316       -3.19635       -1.38344
H          2.96465       -3.05970       -0.09162
H          2.97070       -5.31629       -0.77179
H          1.40201       -4.67482       -1.26073
H          3.10661       -5.61854       -5.29579
H          2.78863       -3.94342       -5.77649
H          5.11671       -4.42625       -6.29333
H          5.10565       -3.28346       -4.93761
H          7.02166       -4.22194       -3.41337
H          5.36707       -4.11980       -2.77620
H          6.28363       -5.62372       -2.60157
