29

C          1.05788        0.05310        0.02840
N          0.59230        1.06999        0.95349
C         -0.17098        2.18437        0.41911
C          0.94753        0.93135        2.29226
O          1.46764       -0.10372        2.71729
C          0.61486        2.08814        3.24835
O          1.03441        3.38724        2.83833
C          2.37559        3.57356        2.86330
O          3.22371        2.73016        3.11298
C          2.71554        4.93864        2.41808
C          3.73748        5.07016        1.46702
C          4.12483        6.33545        1.02464
C          3.50187        7.47219        1.53887
C          2.49524        7.34884        2.49989
C          2.10542        6.08266        2.94317
O          1.15320        5.97669        3.91764
H          0.87497        0.35062       -1.00758
H          0.53141       -0.88252        0.24038
H          2.13153       -0.10549        0.17099
H         -0.92001        2.51785        1.14128
H          0.51482        3.00530        0.19440
H         -0.69007        1.88079       -0.49482
H         -0.47281        2.11230        3.37730
H          1.03540        1.86384        4.23678
H          4.23533        4.18480        1.07565
H          4.91764        6.43389        0.28671
H          3.81040        8.45831        1.19878
H          2.03738        8.24988        2.89790
H          0.87721        6.86510        4.19747
