34

C          1.13729       -0.17442       -0.23364
C          0.84999       -0.72855        1.15358
C          1.28656        0.20667        2.28504
C          0.59492        1.57486        2.31118
C         -0.93259        1.53120        2.42769
C         -1.46533        0.89707        3.71766
C         -1.10733        1.64526        5.00783
C         -1.57390        3.10799        5.06627
C         -3.09643        3.29253        4.97013
O         -3.71700        2.71790        6.12019
C         -3.49212        4.77369        4.89295
O         -3.04699        5.37512        3.68217
H          0.55651        0.73050       -0.43455
H          0.87213       -0.91354       -0.99640
H          2.19970        0.06315       -0.34794
H         -0.21581       -0.96547        1.24043
H          1.38551       -1.67911        1.26493
H          1.12680       -0.30263        3.24249
H          2.36910        0.36962        2.20911
H          1.01032        2.15952        3.14032
H          0.85827        2.12924        1.40263
H         -1.31936        2.55239        2.33289
H         -1.34888        0.98625        1.57281
H         -2.55535        0.81328        3.63873
H         -1.10180       -0.13374        3.79916
H         -1.52832        1.09466        5.85767
H         -0.02049        1.62172        5.15122
H         -1.22994        3.52094        6.02377
H         -1.06643        3.67823        4.28159
H         -3.48725        2.79241        4.07795
H         -3.65117        1.75174        6.03698
H         -4.58328        4.86575        4.93123
H         -3.10029        5.34025        5.74513
H         -2.10508        5.59076        3.79158
