35

C          1.38647       -0.01947       -0.44242
C          0.88762       -1.44131       -0.23728
C          1.14612       -1.97248        1.17488
C          0.30305       -1.29682        2.25037
O         -1.08668       -1.51911        1.96932
C         -1.86061       -0.41436        1.81533
O         -1.44395        0.73844        1.75748
C         -3.35876       -0.75318        1.79324
C         -3.71300       -2.23290        1.72081
O         -4.07365       -0.09856        2.85693
C         -3.55615       -0.24558        4.10754
O         -2.67765       -1.03625        4.42316
C         -4.15709        0.75601        5.05563
C         -3.45924        2.10957        4.95419
C         -3.86913        2.90080        3.71963
H          0.90410        0.68527        0.24006
H          1.17242        0.30840       -1.46457
H          2.46847        0.03879       -0.28796
H         -0.18091       -1.49216       -0.47501
H          1.39772       -2.09530       -0.95396
H          0.91107       -3.04402        1.17584
H          2.20814       -1.87244        1.42617
H          0.51025       -1.76500        3.21925
H          0.56090       -0.23753        2.35190
H         -3.73090       -0.30042        0.86492
H         -3.37603       -2.77896        2.60698
H         -4.79927       -2.36090        1.66240
H         -3.25951       -2.70193        0.84133
H         -5.23634        0.82924        4.88674
H         -4.02800        0.35421        6.06822
H         -3.71164        2.70077        5.84180
H         -2.37002        1.98019        4.95155
H         -4.95799        2.98662        3.65017
H         -3.45030        3.91103        3.76321
H         -3.50111        2.43336        2.80205
