30

C          0.97294        0.02423       -0.17174
C          0.66818       -1.37440       -0.68780
C          1.08178       -2.41772        0.31028
C          0.23287       -3.32635        0.81304
C          0.58029       -4.31323        1.89240
C         -0.06255       -3.94750        3.23420
O         -1.49674       -4.02762        3.14486
C         -2.16077       -2.84987        2.99395
O         -1.64392       -1.73902        3.00895
C         -3.65838       -3.05359        2.85585
C         -4.03981       -4.41101        2.27095
C         -4.31531       -2.82677        4.21088
H          0.48685        0.20810        0.79279
H          0.61415        0.77680       -0.88090
H          2.05092        0.16913       -0.04230
H         -0.40433       -1.44566       -0.90560
H          1.20190       -1.54421       -1.62887
H          2.11235       -2.38586        0.65687
H         -0.79650       -3.34530        0.46045
H          0.23142       -5.30211        1.57220
H          1.66711       -4.37696        2.02128
H          0.24358       -4.68000        3.98919
H          0.27785       -2.96781        3.59009
H         -4.00929       -2.28840        2.15136
H         -3.76725       -5.23308        2.94177
H         -5.11950       -4.46640        2.09630
H         -3.53357       -4.57914        1.31402
H         -4.06089       -1.83702        4.60617
H         -5.40531       -2.88916        4.13281
H         -3.97898       -3.56872        4.94333
