65

C          0.70812       -0.08386       -0.02841
O          0.01321        1.15288        0.11569
C          0.57153        2.04506        0.99401
C          1.95191        2.24067        1.08349
C          2.49618        3.18751        1.96101
N          3.89451        3.45377        1.97233
C          4.90170        2.52261        1.60289
C          5.43084        2.49268        0.30284
C          4.90191        3.33606       -0.72879
N          4.47217        3.98770       -1.58825
C          6.48532        1.62614       -0.02692
N          7.15139        0.76004        0.78920
C          6.73082        0.63248        2.04939
C          7.53822       -0.45877        3.13794
C          6.98292       -0.63720        4.83616
O          7.94495       -1.51562        5.29396
C          8.60999       -1.96471        6.47675
C          8.84127       -1.03969        7.66393
C          7.58354       -0.43758        8.24299
N          6.64561       -0.12043        7.20118
C          7.25647        1.08774        6.13852
C          6.69547        1.16130        4.26571
N          5.50943       -0.44792        3.59918
C          4.32100       -0.70428        2.70082
C          5.18054       -1.77783        4.87271
C          5.80670       -1.55223        6.63420
C          5.35088        0.35771        5.33965
O          4.36685        0.19284        6.32586
C          4.06603        1.36228        7.07651
C          4.61241        1.43791        4.13410
C          5.36479        1.60387        2.54725
C          1.61660        3.96284        2.74017
Cl         2.23403        5.11945        3.87001
C          0.23671        3.79719        2.64450
C         -0.28220        2.85027        1.76011
Cl        -1.99912        2.69998        1.64785
H          0.13754       -0.70559       -0.72432
H          0.76686       -0.60909        0.93085
H          1.70442        0.04311       -0.46216
H          2.61756        1.67916        0.44035
H          4.13001        3.89448        2.86616
H          6.86085        1.61127       -1.05285
H          8.39337       -1.02595        2.78811
H          8.18185       -2.91970        6.79850
H          9.61124       -2.25575        6.13405
H          9.34472       -1.60273        8.46062
H          9.53424       -0.24262        7.37456
H          7.83241        0.47398        8.80082
H          7.11384       -1.10933        8.96977
H          6.96652        2.05048        6.57960
H          8.35163        1.02673        6.10720
H          7.70681        1.36420        3.80885
H          6.35951        2.23965        4.27716
H          3.37002       -0.51061        3.21590
H          4.29409       -0.23392        1.71489
H          4.31871       -1.77547        2.46043
H          5.65848       -2.67163        4.44177
H          4.09076       -1.90178        4.91195
H          6.34885       -2.45771        6.90136
H          4.92681       -1.63382        7.29252
H          4.67386        2.23220        6.81462
H          3.00805        1.60158        6.94143
H          4.22526        1.12602        8.13353
H          3.68658        1.94870        4.36527
H         -0.43070        4.40800        3.24632
