20

C          1.02860        0.02394       -0.04746
O          0.38025        1.00284        0.75786
C          0.83482        1.10160        2.04348
C         -0.09861        1.56713        2.97095
C          0.24454        1.71571        4.31969
C          1.54032        1.41107        4.75095
C          1.98473        1.54210        6.16876
N          1.06504        1.89020        7.11708
O          3.14893        1.33489        6.49587
C          2.48182        0.97027        3.80907
C          2.13305        0.81743        2.46206
H          0.46653       -0.06252       -0.98242
H          1.02008       -0.95697        0.44041
H          2.04819        0.32868       -0.30212
H         -1.10653        1.80812        2.64060
H         -0.51795        2.07696        4.99935
H          1.39781        1.94370        8.07132
H          0.07970        2.01859        6.95449
H          3.50116        0.74739        4.12145
H          2.90022        0.49506        1.76582
