9

N          0.90189        0.02354        0.04354
C          0.14784        1.15809       -0.17214
O         -1.07969        1.06830       -0.15507
C          0.93524        2.46429       -0.42044
F          1.75278        2.76404        0.62947
F          1.75277        2.35788       -1.50711
F          0.14671        3.55114       -0.62705
H          0.41464       -0.84795        0.20920
H          1.91451        0.02956        0.04239
