56

C          0.81371        0.05833        0.16237
C          0.43376       -1.33826        0.57645
O         -0.34238       -1.51923        1.51779
N          0.88298       -2.42370       -0.12323
C          1.82726       -2.53850       -1.15584
C          1.72601       -3.63852       -2.01017
C          2.55007       -3.74455       -3.14210
C          3.46545       -2.73973       -3.44587
N          4.16850       -2.60035       -4.65957
C          3.97357       -3.07466       -5.94004
O          4.81759       -2.83287       -6.80173
C          2.77753       -3.84557       -6.32395
C          3.01555       -5.03235       -7.01023
C          2.01879       -5.99674       -7.10212
C          2.32555       -7.21471       -7.72392
C          1.46191       -8.29559       -7.61546
C          0.28034       -8.15327       -6.89729
C         -0.08947       -6.90128       -6.37898
C          0.75362       -5.77093       -6.49497
C          0.43665       -4.45420       -6.01903
N         -0.89555       -4.12600       -5.60653
N         -0.87930       -3.48214       -4.53103
C         -2.12473       -2.90749       -4.19754
C         -2.34805       -1.53789       -4.47050
C         -3.47782       -0.87098       -3.96470
C         -3.74444        0.59175       -4.13440
N         -2.82818        1.36347       -4.79140
O         -4.75395        1.11176       -3.67933
C         -4.40551       -1.59457       -3.20248
C         -4.20855       -2.95207       -2.94246
C         -3.07059       -3.60122       -3.42809
Cl        -2.83485       -5.25851       -2.99830
C          1.47052       -3.48528       -5.99114
O          1.17462       -2.19804       -5.59937
C          3.68723       -1.74478       -2.49154
C          2.87057       -1.64103       -1.36002
H          0.07737        0.76171        0.56512
H          0.79426        0.16454       -0.92561
H          1.79023        0.32562        0.56995
H          0.35820       -3.25819        0.11670
H          0.96252       -4.39840       -1.85077
H          2.42688       -4.62072       -3.76956
H          4.97621       -1.98566       -4.63309
H          4.01633       -5.23618       -7.39078
H          3.26185       -7.34249       -8.26619
H          1.73270       -9.25098       -8.05882
H         -0.35729       -9.02058       -6.74271
H         -1.02690       -6.82738       -5.83025
H         -1.59825       -1.01055       -5.05192
H         -3.04034        2.35257       -4.85164
H         -1.95771        1.04276       -5.18084
H         -5.27980       -1.09533       -2.78375
H         -4.93059       -3.48584       -2.32937
H          1.99739       -1.71055       -5.42647
H          4.46131       -0.99515       -2.63738
H          3.09035       -0.85075       -0.65288
