17

C          1.21144        0.29635        0.06543
N          0.50383        0.07119       -1.17940
C         -0.26676       -0.83822       -1.79817
S         -0.71679       -0.30132       -3.34435
N         -0.65051       -2.04548       -1.26941
C         -0.33349       -2.61356        0.03042
C         -1.49954       -2.94610       -2.06361
H          1.15284       -0.48373        0.80705
H          0.81761        1.21986        0.49981
H          2.26364        0.46037       -0.18480
H          0.62021        0.85927       -1.80787
H         -1.27136       -2.80094        0.56413
H          0.18481       -3.56575       -0.12527
H          0.28472       -2.00691        0.66322
H         -2.44778       -2.45042       -2.29416
H         -0.98188       -3.22035       -2.98817
H         -1.72152       -3.86583       -1.51214
