98

C         -0.08086        0.98057        0.54921
C         -0.05023        2.34449       -0.10816
C          0.75185        2.43989       -1.41172
C          0.42502        1.45915       -2.54727
C         -1.06430        1.21975       -2.86794
C         -1.80347        2.52546       -3.23112
C         -1.29724        3.23562       -4.47913
C         -1.25542        0.13570       -3.95683
O         -0.76214       -1.15747       -3.52827
C          0.44236       -1.54684       -4.01258
O          1.09809       -0.91188       -4.83227
C          0.90412       -2.91089       -3.52330
C          0.28239       -3.52498       -2.25579
C         -1.24278       -3.63339       -2.08471
C         -2.13031       -4.12444       -3.19889
O         -3.32615       -4.32630       -3.02405
O         -1.48473       -4.33144       -4.36478
C         -2.22730       -4.93897       -5.45140
C         -1.88838       -6.44185       -5.52883
C         -2.41900       -7.24282       -4.31868
C         -3.93255       -7.36300       -4.22962
C         -2.27671       -7.10130       -6.86299
C         -1.48570       -6.61470       -8.08880
C          0.04458       -6.65196       -7.98008
C          0.61550       -8.03144       -7.68740
O          0.94451       -4.78111       -1.82394
C          1.32098       -5.95390       -2.33439
C          1.19522       -6.19721       -3.78947
O          1.81077       -6.81304       -1.60562
C          0.71729       -2.60954       -1.09315
O          0.71739       -1.39039       -1.17872
O          1.05576       -3.26784        0.04692
C          1.32515       -2.44946        1.19315
C          2.82527       -2.18593        1.42263
C          3.64906       -1.72377        0.19539
C          3.57916       -0.25275       -0.19036
C          3.03162       -1.23942        2.62653
C          2.55274       -1.77258        3.98214
C          3.09738       -3.14717        4.37425
C          4.61621       -3.22694        4.35658
H         -0.63915        0.25608       -0.04620
H         -0.57443        1.03333        1.52469
H          0.93167        0.61191        0.71405
H         -1.07860        2.67986       -0.26949
H          0.39446        3.04723        0.60712
H          0.65024        3.46279       -1.79281
H          1.81733        2.32223       -1.17250
H          0.94560        1.79834       -3.45175
H          0.90649        0.51463       -2.30713
H         -1.53946        0.82354       -1.96341
H         -2.87109        2.30949       -3.35946
H         -1.74198        3.22724       -2.39211
H         -1.48241        2.64154       -5.37815
H         -1.81966        4.19047       -4.59908
H         -0.22775        3.45519       -4.42018
H         -2.32803       -0.00186       -4.13892
H         -0.81377        0.43696       -4.91260
H          0.81233       -3.56775       -4.38705
H          1.98613       -2.81496       -3.35010
H         -1.44204       -4.30476       -1.23797
H         -1.65925       -2.65562       -1.80729
H         -3.30329       -4.75259       -5.37023
H         -1.89061       -4.42362       -6.35613
H         -0.80566       -6.52660       -5.45510
H         -1.99517       -8.25466       -4.35154
H         -2.03985       -6.80229       -3.38985
H         -4.32540       -7.99381       -5.03194
H         -4.21035       -7.82605       -3.27685
H         -4.42984       -6.39179       -4.28184
H         -2.13255       -8.18607       -6.77792
H         -3.34504       -6.94824       -7.05633
H         -1.78679       -7.22695       -8.94840
H         -1.78810       -5.58933       -8.33014
H          0.46362       -6.30116       -8.93128
H          0.39248       -5.94395       -7.21967
H          0.28898       -8.75965       -8.43615
H          1.71021       -7.99540       -7.70818
H          0.31674       -8.39180       -6.69879
H          2.17041       -6.11543       -4.27144
H          0.78547       -7.20087       -3.93839
H          0.51351       -5.50261       -4.24920
H          0.73926       -1.52891        1.17282
H          0.93166       -3.01681        2.04480
H          3.25755       -3.16541        1.66244
H          4.70332       -1.93588        0.41932
H          3.41181       -2.33880       -0.67913
H          3.79523        0.41160        0.65059
H          4.32362       -0.03979       -0.96558
H          2.60753        0.01386       -0.60025
H          4.09416       -0.98044        2.70897
H          2.50472       -0.29399        2.44213
H          2.83772       -1.04513        4.75310
H          1.45674       -1.80865        3.99716
H          2.74250       -3.38695        5.38338
H          2.68384       -3.91799        3.71468
H          5.05396       -2.49224        5.03910
H          4.94289       -4.22320        4.66961
H          5.02136       -3.04979        3.35577
