15

C          0.93392        0.04264        0.11505
C          0.46209        0.54522       -1.24048
C          0.86744       -0.36339       -2.40594
C          0.35403       -1.80303       -2.35403
S         -1.45621       -1.92420       -2.44900
H          0.43867       -0.89265        0.39155
H          0.70286        0.78067        0.88999
H          2.01582       -0.12308        0.11787
H         -0.62326        0.68933       -1.22006
H          0.89872        1.53672       -1.41284
H          0.54410        0.10509       -3.34445
H          1.96375       -0.39767       -2.44982
H          0.76247       -2.35589       -3.20663
H          0.69520       -2.31262       -1.44820
H         -1.71533       -1.38224       -1.25029
