26

C          0.48556       -0.12642        0.30536
C          0.62518        1.33626        0.69434
O          1.08291        2.12036       -0.41518
C          2.43084        2.35317       -0.37521
C          3.32534        1.36587       -0.77142
C          4.69831        1.62614       -0.79038
C          5.17240        2.90617       -0.44220
N          6.49909        3.29564       -0.42247
C          6.57051        4.57113       -0.09316
S          8.08011        5.50131        0.05713
N          9.16122        4.61938        1.00990
O          8.67013        5.56582       -1.25874
O          7.79831        6.69322        0.83130
S          5.09334        5.36154        0.22884
C          4.24752        3.89435       -0.08991
C          2.86640        3.63871       -0.04618
H          0.06493       -0.22980       -0.69996
H         -0.15108       -0.65856        1.01790
H          1.46057       -0.62288        0.30299
H         -0.36660        1.72353        0.95384
H          1.25641        1.45556        1.58449
H          2.96663        0.39255       -1.09125
H          5.40172        0.85657       -1.09270
H         10.05322        4.55139        0.51825
H          9.24530        5.06534        1.92338
H          2.15820        4.41722        0.21851
