28

C          0.91271       -0.08026        0.04263
C          0.55042        1.37629        0.26738
O          1.09079        2.18857       -0.78447
C          2.37976        2.58967       -0.62002
O          3.07129        2.34369        0.36324
C          2.87514        3.42372       -1.79009
N          2.38923        2.96634       -3.10184
C          2.74594        1.82363       -3.58265
C          3.64774        0.81363       -2.91322
C          2.21547        1.45151       -4.94816
C          0.72046        1.27338       -4.97836
C         -0.08692        2.24952       -5.79473
O          0.17348        0.36796       -4.34566
H          0.56978       -0.41340       -0.94234
H          0.46000       -0.71586        0.80889
H          1.99758       -0.22455        0.06709
H         -0.53758        1.49439        0.23950
H          0.88561        1.72435        1.25154
H          2.52382        4.44844       -1.62823
H          3.97010        3.45334       -1.78194
H          3.04221       -0.03051       -2.57222
H          4.37902        0.44972       -3.64142
H          4.20134        1.22424       -2.06968
H          2.52199        2.22778       -5.65657
H          2.66672        0.51418       -5.29052
H         -0.82634        1.69910       -6.38315
H         -0.58466        2.95955       -5.13091
H          0.55240        2.79747       -6.49203
