25

C          1.37439        0.04155       -0.21564
O          1.01339        0.98602       -1.21616
N          1.28064        2.27359       -0.73218
C          0.52005        3.16175       -1.30242
C         -0.48406        2.86963       -2.39790
C          0.67204        4.60946       -0.89433
C          0.17931        5.07139        0.47046
C          0.51625        6.39303        0.86370
Cl         1.36455        7.47638       -0.19555
C          0.16342        6.91277        2.11320
C         -0.53505        6.12185        3.00899
Cl        -0.95462        6.74104        4.55683
C         -0.91907        4.83857        2.64866
C         -0.59269        4.32462        1.38320
Cl        -1.28128        2.77499        1.05088
H          1.05227       -0.94965       -0.54568
H          0.87019        0.27288        0.72835
H          2.45843        0.03655       -0.07326
H         -1.39606        3.44575       -2.21654
H         -0.05584        3.18359       -3.35442
H         -0.75564        1.81489       -2.45782
H          1.75204        4.80466       -0.95201
H          0.18493        5.22383       -1.66168
H          0.43439        7.93088        2.38178
H         -1.49044        4.23398        3.35062
