20

C          0.95621       -0.03896        0.34048
O          0.31953        1.20948        0.61731
C          1.01595        2.03148        1.44708
O          2.04788        1.74128        2.03640
C          0.38189        3.39739        1.48348
C          0.97395        4.27403        0.39313
C          0.33990        3.94514       -0.93309
O         -0.69203        4.45838       -1.34310
O          1.03632        2.95819       -1.55772
C          0.39964        2.41970       -2.71757
H          0.53397       -0.43055       -0.58959
H          0.74894       -0.74600        1.14759
H          2.03513        0.07883        0.19424
H         -0.70694        3.30204        1.40173
H          0.58700        3.82695        2.47082
H          0.76884        5.33059        0.60061
H          2.06279        4.17371        0.31755
H         -0.67928        2.30217       -2.57112
H          0.60691        3.05613       -3.58145
H          0.82188        1.42724       -2.90028
