22

N          0.75601        0.03717        0.28574
C          0.13485       -0.42435        1.42568
N          0.56484        0.04293        2.59310
C         -0.04442       -0.43434        3.68886
N          0.37134        0.13610        4.90417
C         -1.06596       -1.37772        3.66488
N         -1.65946       -1.87183        4.79206
C         -2.61084       -2.79590        4.60191
N         -3.17395       -3.34153        5.75508
C         -2.95990       -3.22268        3.30568
N         -3.91175       -4.22133        3.07702
N         -2.36068       -2.72355        2.20812
C         -1.40777       -1.80073        2.37416
N         -0.81839       -1.33594        1.27740
H          0.65032       -0.62832       -0.46788
H          1.68931        0.36257        0.49388
H          0.47025       -0.56818        5.62926
H          1.19875        0.70123        4.74570
H         -4.18353       -3.37482        5.71817
H         -2.81963       -2.82837        6.55660
H         -4.02698       -4.31277        2.07088
H         -4.78303       -4.04140        3.55686
