39

C          0.83253        0.05147        0.08038
C          0.38033       -1.40488        0.05008
C          0.86027       -2.17494        1.27342
C         -1.12542       -1.49628       -0.09005
O         -1.68848       -2.02827       -1.03776
O         -1.76235       -0.88436        0.94369
C         -3.19670       -0.84593        0.86497
C         -3.69248        0.14910       -0.18406
O         -5.12828        0.27606       -0.15709
C         -5.40545        1.42447       -0.98640
N         -6.74331        1.95447       -0.76059
C         -7.63773        1.34587        0.10423
C         -8.89216        1.78658        0.25299
I        -10.25824        0.91805        1.46815
C         -9.16482        2.96765       -0.57419
O        -10.38743        3.49496       -0.42141
N         -8.38984        3.55327       -1.40814
C         -7.13229        3.02885       -1.57595
O         -6.36869        3.49613       -2.41696
C         -4.27242        2.41597       -0.69402
C         -3.19646        1.58325       -0.01837
O         -3.09943        1.97685        1.35026
H          0.47861        0.56609        0.98051
H          0.44300        0.59818       -0.78540
H          1.92521        0.11858        0.06147
H          0.80950       -1.87607       -0.84333
H          0.49658       -1.72364        2.20285
H          0.50203       -3.20967        1.24649
H          1.95442       -2.19514        1.31273
H         -3.59533       -1.85012        0.67283
H         -3.57275       -0.57356        1.85798
H         -3.42359       -0.20503       -1.18719
H         -5.35303        1.09359       -2.03282
H         -7.28494        0.47480        0.64850
H        -10.44952        4.26684       -1.01038
H         -4.60478        3.24437       -0.05748
H         -3.90754        2.84823       -1.63219
H         -2.21033        1.72719       -0.46990
H         -3.97173        1.85575        1.76570
