16

C          1.13464       -0.13513       -0.04901
C          0.46956       -0.56216       -1.35854
N          0.90938       -1.92821       -1.67319
C         -1.05678       -0.52684       -1.27180
C         -1.57239        0.88186       -1.21938
O         -1.86143        1.57744       -2.17935
O         -1.67613        1.36412        0.03243
H          0.76865       -0.72502        0.79897
H          0.94250        0.92118        0.16404
H          2.22270       -0.25719       -0.09949
H          0.81458        0.10480       -2.15787
H          0.57192       -2.19410       -2.59840
H          1.92773       -1.95770       -1.72657
H         -1.50803       -0.99292       -2.15760
H         -1.43548       -1.08674       -0.40822
H         -2.00531        2.27971       -0.08649
