55

C          2.30613        0.35987        1.22510
C          1.43233        0.25091        2.49345
C          0.24674        1.25863        2.37396
C          0.67355        2.72365        2.48095
C          1.40188        2.96813        3.77443
O          1.34701        4.03412        4.38139
C          2.25753        1.88748        4.29147
C          2.28166        0.66940        3.72348
C          3.12951       -0.37314        4.39967
C          2.24280       -1.55212        4.72045
C          1.78722       -2.15563        3.39658
C          0.82822       -1.22149        2.63954
C          0.39557       -1.93313        1.32160
C         -0.12659       -3.38942        1.50679
C          0.79784       -4.30052        2.36812
C          2.04444       -4.69015        1.54742
C          1.20436       -3.52938        3.65004
C         -0.04135       -3.57452        4.55343
C         -0.77017       -4.84358        4.14415
C          0.13212       -5.50847        3.08175
O          1.13465       -6.24208        3.81208
C         -0.68028       -6.51459        2.40919
C         -1.42825       -7.43563        2.58238
C         -2.25076       -8.34125        3.39025
O         -1.86527       -9.69113        3.21081
H          2.79783        1.33500        1.14349
H          1.70056        0.24119        0.31806
H          3.09119       -0.40299        1.20640
H         -0.47240        1.06455        3.18300
H         -0.29527        1.10921        1.43347
H         -0.21464        3.36358        2.46684
H          1.32662        3.02442        1.65649
H          2.84718        2.13709        5.16801
H          3.57085       -0.00755        5.33446
H          3.96398       -0.67046        3.75377
H          1.38037       -1.24242        5.32762
H          2.80350       -2.28347        5.31353
H          2.68088       -2.29671        2.77396
H         -0.08335       -1.11542        3.24087
H          1.23922       -1.97357        0.62379
H         -0.38603       -1.34413        0.82643
H         -1.13250       -3.32982        1.93480
H         -0.25807       -3.84103        0.51377
H          2.51455       -3.81902        1.07809
H          2.81708       -5.15588        2.16874
H          1.78710       -5.38980        0.74606
H          1.99218       -4.09700        4.16739
H          0.23401       -3.60610        5.61150
H         -0.71351       -2.72212        4.41898
H         -1.75256       -4.58242        3.72493
H         -0.94912       -5.49285        5.00828
H          1.63083       -6.77011        3.16412
H         -2.09780       -8.09942        4.45084
H         -3.31617       -8.22382        3.18150
H         -1.80893       -9.84126        2.25452
