62

C          0.95290        0.42095       -0.13129
C          0.53526        0.56220       -1.58639
C          1.06572       -0.55249       -2.49167
C          0.68762       -1.98051       -2.08453
C         -0.81863       -2.32486       -2.05489
C         -1.54473       -2.03730       -3.38569
C         -1.12704       -2.92829       -4.54769
C         -1.02839       -3.79656       -1.62861
O         -0.74824       -3.96493       -0.23168
C          0.48049       -4.35737        0.17078
O          1.38433       -4.71935       -0.56941
C          0.58924       -4.29697        1.68031
C          0.45227       -2.88502        2.24776
C         -0.96589       -2.49491        2.61351
O         -1.29221       -2.05430        3.70733
O         -1.79626       -2.67123        1.56521
C         -3.21857       -2.50795        1.70292
C         -3.87579       -3.87192        2.00164
C         -3.56881       -4.37030        3.43334
C         -4.11252       -3.49273        4.55392
C         -5.39857       -3.85967        1.75043
C         -5.83439       -3.77714        0.27978
C         -5.36435       -4.91760       -0.62896
C         -5.82876       -6.29474       -0.17954
H          0.41526       -0.40135        0.34451
H          0.71219        1.33195        0.42559
H          2.02845        0.23931       -0.03771
H         -0.55693        0.61594       -1.64670
H          0.91802        1.51820       -1.96337
H          0.74692       -0.35884       -3.52148
H          2.16190       -0.49098       -2.50458
H          1.20099       -2.67410       -2.76168
H          1.11875       -2.16065       -1.09528
H         -1.28126       -1.68858       -1.28811
H         -2.62478       -2.15985       -3.23147
H         -1.40664       -0.98874       -3.67077
H         -1.40615       -3.97120       -4.36802
H         -1.63310       -2.60901       -5.46437
H         -0.04958       -2.88304       -4.72651
H         -2.08583       -4.06006       -1.74757
H         -0.44779       -4.49974       -2.23408
H         -0.12311       -5.00106        2.12107
H          1.59588       -4.66277        1.92249
H          1.02699       -2.83977        3.18208
H          0.87114       -2.13033        1.57940
H         -3.46265       -1.73128        2.43265
H         -3.55549       -2.13757        0.72950
H         -3.41664       -4.61452        1.33642
H         -3.98249       -5.37938        3.55538
H         -2.48695       -4.48457        3.55881
H         -5.20521       -3.52591        4.58688
H         -3.73821       -3.84831        5.51900
H         -3.80811       -2.44851        4.45207
H         -5.84735       -4.75856        2.19078
H         -5.84431       -3.00917        2.28124
H         -6.93170       -3.74913        0.25634
H         -5.50238       -2.82687       -0.15249
H         -5.75646       -4.73503       -1.63730
H         -4.27348       -4.91126       -0.71956
H         -6.91768       -6.32804       -0.07269
H         -5.54018       -7.04843       -0.91984
H         -5.37665       -6.57953        0.77489
