56

C         -0.54934        1.51765        0.03684
N         -0.15439        0.88526        1.30560
C         -1.29637        0.16022        1.95075
C         -1.39333       -1.35961        2.36091
O         -0.85951       -1.69322        3.65764
C          0.37131       -2.28999        3.64424
C          0.62644       -3.56456        3.12703
C          1.95949       -3.99567        2.94795
C          3.02403       -3.16854        3.31928
N          4.37757       -3.35926        2.86993
S          5.19542       -4.81222        3.14257
C          6.31788       -4.79212        1.75681
O          5.97958       -4.60767        4.34168
O          4.31458       -5.94618        2.98644
C          2.74061       -1.94854        3.94349
C          1.42299       -1.52845        4.13746
C          1.14324        0.21063        1.13312
C          0.97223       -1.15491        0.50333
C          1.85057       -1.85896       -0.46773
C          1.45951       -3.19259       -0.68534
C          1.86981       -3.88502       -1.80638
C          2.75304       -3.28899       -2.69124
N          3.05620       -3.82895       -3.97250
S          2.80344       -5.41251       -4.45344
C          1.34719       -5.23974       -5.46481
O          3.90339       -5.71389       -5.34258
O          2.49064       -6.27987       -3.33934
C          3.23477       -1.99538       -2.41081
C          2.78936       -1.27307       -1.29771
H         -1.38894        2.20491        0.17906
H         -0.82928        0.78053       -0.72484
H          0.27227        2.11924       -0.37277
H         -1.52702        0.73766        2.85352
H         -2.16586        0.30345        1.29104
H         -2.47000       -1.55551        2.46727
H         -1.11029       -2.06142        1.57134
H         -0.18714       -4.19646        2.78039
H          2.13938       -4.94335        2.44518
H          4.99095       -2.60666        3.18653
H          6.93233       -3.88966        1.81000
H          6.96121       -5.67251        1.82357
H          5.74553       -4.81770        0.82805
H          3.54040       -1.27406        4.23458
H          1.22108       -0.55180        4.56814
H          1.83411        0.84176        0.56169
H          1.61383        0.13308        2.11632
H          0.91610       -1.83924        1.33211
H          0.00560       -1.16742       -0.01534
H          0.72931       -3.66225       -0.02566
H          1.42580       -4.85975       -1.96006
H          3.82212       -3.39411       -4.48363
H          1.55744       -4.52637       -6.26446
H          1.12397       -6.21811       -5.89748
H          0.50786       -4.90626       -4.85223
H          3.91764       -1.50488       -3.09911
H          3.11677       -0.24849       -1.14792
