44

O          1.05169        0.20642       -0.24808
N          2.19931       -0.04500        0.13816
O          2.77099        0.51550        1.08395
C          2.94308       -1.08338       -0.58254
C          4.07513       -1.66072        0.00789
C          4.78314       -2.65444       -0.67938
C          4.38099       -3.08423       -1.95392
N          5.13733       -4.09185       -2.57776
N          4.46163       -5.13961       -2.67636
C          5.23900       -6.18102       -3.21329
C          5.83692       -6.10872       -4.47087
C          6.62151       -7.17045       -4.95225
C          6.81500       -8.35606       -4.21978
N          7.62836       -9.38611       -4.68902
C          7.73694       -9.63122       -6.14924
C          9.18758       -9.48037       -6.62793
O          9.97252      -10.60627       -6.22939
C          8.01158      -10.54149       -3.83869
C          9.26821      -10.24875       -3.00251
O          9.05799       -9.22677       -2.03224
C          6.18344       -8.40301       -2.96548
C          5.40838       -7.34465       -2.47211
C          3.25897       -2.46677       -2.52588
N          2.83974       -2.83667       -3.86282
O          3.66967       -2.72027       -4.77418
O          1.65742       -3.17660       -4.00199
C          2.52020       -1.47967       -1.85542
H          4.41455       -1.35576        0.99728
H          5.65776       -3.10847       -0.21435
H          5.71015       -5.21600       -5.07926
H          7.10444       -7.02269       -5.91414
H          7.37698      -10.64441       -6.36885
H          7.09740       -8.96225       -6.73327
H          9.21787       -9.43451       -7.72102
H          9.64190       -8.56769       -6.22744
H         10.83618      -10.26216       -5.94373
H          7.18204      -10.86320       -3.20237
H          8.23437      -11.41190       -4.46771
H          9.56886      -11.15296       -2.46440
H         10.10554       -9.93897       -3.63432
H          8.75979       -8.44976       -2.54207
H          6.28071       -9.26621       -2.31426
H          4.94816       -7.43314       -1.49158
H          1.64685       -1.03076       -2.32595
