16

C         -1.74046       -1.63177        0.00026
C         -0.50952       -0.77359        0.00062
C          0.75524       -1.38316       -0.00424
C          1.92148       -0.61384       -0.00356
C          1.83985        0.77623        0.00192
C          0.59211        1.39570        0.00594
C         -0.56978        0.62556        0.00455
O         -1.74777        1.31783        0.00706
H         -2.34471       -1.42802        0.89012
H         -2.33623       -1.43883       -0.89762
H         -1.49033       -2.69797        0.00868
H          0.84359       -2.46758       -0.00838
H          2.89327       -1.10077       -0.00717
H          2.74480        1.37737        0.00278
H          0.52216        2.47993        0.00977
H         -2.48672        0.69110       -0.00400
