32

C          0.73703       -0.00810        0.26121
N          0.53884        0.19592        1.68789
C         -0.34252        1.29742        2.09322
C         -1.82712        0.97496        1.89889
O         -2.23618       -0.08801        2.75383
C          0.95445       -0.83784        2.52474
O          1.36260       -1.90713        2.05929
C          0.82480       -0.67072        4.05064
O          1.28784        0.52525        4.66546
C          2.59764        0.80282        4.46675
O          3.37696        0.16360        3.78243
C          2.96713        2.04610        5.18862
C          4.11520        2.73397        4.77642
C          4.51293        3.89451        5.44175
C          3.77168        4.36594        6.52510
C          2.62992        3.68239        6.94354
C          2.22429        2.52445        6.27671
H          0.48481        0.89557       -0.30012
H          0.11116       -0.84003       -0.07581
H          1.78736       -0.25734        0.07711
H         -0.17239        1.54404        3.14093
H         -0.06941        2.17965        1.50322
H         -2.42865        1.85355        2.15191
H         -2.05224        0.69478        0.86507
H         -1.86867       -0.90746        2.37604
H         -0.23507       -0.77745        4.30244
H          1.33383       -1.51770        4.52829
H          4.70294        2.36585        3.93746
H          5.40462        4.42619        5.11881
H          4.08826        5.26516        7.04837
H          2.05954        4.04766        7.79427
H          1.33926        1.99705        6.62406
