23

Cl        -2.61532        0.17058        0.75684
C         -1.11131       -0.54955        0.29268
C         -1.07291       -1.94520        0.21036
C          0.10697       -2.59444       -0.14967
O          0.04003       -3.96720       -0.24290
C          1.17594       -4.68082        0.05757
C          1.68623       -5.53095       -0.92301
C          2.82174       -6.29481       -0.65279
C          3.43069       -6.21935        0.60079
C          2.90108       -5.38791        1.58899
C          1.76561       -4.62202        1.32219
C          1.24402       -1.84787       -0.46081
C          1.20857       -0.45147       -0.37666
Cl         2.66699        0.39586       -0.76689
C          0.03136        0.21136        0.00345
Cl        -0.01256        1.94316        0.10653
H         -1.96242       -2.53274        0.42796
H          1.20571       -5.59457       -1.89523
H          3.22922       -6.95212       -1.41666
H          4.31440       -6.81731        0.81116
H          3.36968       -5.34274        2.56889
H          1.34587       -3.99075        2.09976
H          2.15914       -2.34289       -0.77774
