38

O          0.91823        0.21211        0.27647
C          2.07243        0.10543       -0.12398
O          2.85815       -0.94308        0.25096
C          4.23872       -0.75244        0.63637
C          5.20317       -1.61660       -0.20164
C          5.00061       -3.15369        0.08620
C          5.55703       -4.11252       -1.01398
C          5.07937       -3.55409       -2.29255
O          5.68343       -3.14521       -3.49334
C          5.93955       -2.27644       -2.42658
C          5.14077       -1.26141       -1.72149
C          2.64653        1.00978       -1.19201
C          2.18827        0.56475       -2.61629
C          2.73655        1.53248       -3.70878
C          2.22230        2.85923       -3.30391
O          2.77120        4.12018       -3.06036
C          3.07238        3.21155       -2.03880
C          2.33348        2.52400       -0.94814
H          4.52479        0.30427        0.61314
H          4.30966       -1.06100        1.68638
H          6.22378       -1.38289        0.13475
H          5.45813       -3.40718        1.04987
H          3.92619       -3.35287        0.18938
H          5.15824       -5.12018       -0.85973
H          6.64968       -4.18047       -0.95812
H          3.99330       -3.53051       -2.31794
H          6.98034       -2.23656       -2.12643
H          4.11236       -1.27666       -2.07167
H          5.54795       -0.26022       -1.89582
H          3.73410        0.93009       -1.17101
H          2.47738       -0.46332       -2.84147
H          1.08971        0.56885       -2.64831
H          2.35070        1.24046       -4.69001
H          3.83182        1.48179       -3.75265
H          1.13709        2.85591       -3.29563
H          4.13493        2.99867       -1.96995
H          1.25422        2.72001       -0.96248
H          2.70891        2.83576        0.03210
