29

C          0.76338        0.21422        0.03736
C          0.34713       -1.11176        0.72413
C          0.74517       -0.97908        2.21565
C         -1.19101       -1.17315        0.65536
O         -1.87979       -2.01810        0.10933
O         -1.79806       -0.11350        1.23007
C          1.00075       -2.38064       -0.00189
C          0.64703       -2.39039       -1.52042
C          2.55471       -2.41879        0.05593
C          3.16159       -2.74572        1.39358
O          3.05711       -3.79258        2.00541
O          3.88972       -1.72861        1.89094
C          0.47318       -3.68965        0.60594
O         -0.17088       -3.81994        1.63304
O          0.85386       -4.78602       -0.08067
H          0.38806        1.08354        0.59157
H          0.35718        0.29804       -0.97540
H          1.85028        0.32618       -0.01354
H          0.07929       -0.29979        2.76051
H          0.71300       -1.92821        2.75468
H          1.74873       -0.56056        2.32667
H         -2.75305       -0.29555        1.10278
H          1.04692       -1.51187       -2.03604
H          1.07421       -3.26355       -2.02884
H         -0.42867       -2.43405       -1.70640
H          2.94439       -3.19060       -0.62362
H          2.98500       -1.48359       -0.31843
H          4.20694       -2.06052        2.75771
H          0.51324       -5.52624        0.46598
