42

C          1.17922        0.25672       -0.22810
C          1.27111        1.41119       -1.22808
N          1.64392        0.98856       -2.58549
C          0.89482        1.55375       -3.70340
C          1.57529        2.64516       -4.50182
C          2.74305        0.16484       -2.76172
O          3.59198       -0.01578       -1.88879
C          2.78847       -0.64767       -4.04024
C          1.93964       -1.90753       -3.89098
C          0.47892       -1.78579       -4.28425
O          0.04197       -2.22426       -5.34231
O         -0.27251       -1.19668       -3.31768
C         -1.71443       -1.18395       -3.48523
N         -2.16210       -0.18554       -4.44976
N         -2.44619       -0.55856       -5.72400
C         -2.59190        0.60244       -6.36909
C         -2.50416        1.70626       -5.50910
C         -2.50482        3.08696       -5.58596
O         -2.51997        3.76744       -6.76790
N         -2.41066        3.84465       -4.48595
C         -2.36317        3.19068       -3.30613
N         -2.32993        1.85500       -3.08640
C         -2.36571        1.16098       -4.24275
H          0.67948       -0.61601       -0.66225
H          0.61803        0.56311        0.66063
H          2.16989       -0.05856        0.11311
H          0.27534        1.86783       -1.26727
H          1.97625        2.17351       -0.88514
H          0.62616        0.76387       -4.40188
H         -0.02082        1.95970       -3.30231
H          2.57819        2.35841       -4.82448
H          0.97576        2.84827       -5.39855
H          1.63621        3.57136       -3.92587
H          2.53218       -0.05737       -4.92150
H          3.84010       -0.93686       -4.17359
H          2.36342       -2.66906       -4.55996
H          1.99790       -2.33119       -2.88224
H         -2.08184       -2.17037       -3.78601
H         -2.15473       -0.92611       -2.51663
H         -2.75513        0.59398       -7.43898
H         -2.41868        4.68536       -6.45878
H         -2.29675        3.82077       -2.42238
