41

C         -2.17133       -0.12927        0.27204
N         -0.75856       -0.03310       -0.05788
C         -0.12220        1.15399        0.51252
C          1.36063        0.79775        0.59028
C          1.43966       -0.67847        0.18565
C          2.51468       -1.44998        0.96640
N          2.71281       -2.83166        0.47450
C          3.04252       -3.01776       -0.89316
C          3.81480       -2.07534       -1.60153
C          4.14192       -2.25551       -2.94930
C          3.71289       -3.39077       -3.62189
C          2.96852       -4.35174       -2.94261
C          2.64445       -4.17863       -1.58675
S          1.67357       -5.45913       -0.81019
C          2.06202       -5.16646        0.90749
C          1.89811       -6.24555        1.79262
C          2.18531       -6.10067        3.14681
C          2.63701       -4.87769        3.62224
C          2.79330       -3.79776        2.74518
C          2.49650       -3.90716        1.37206
C          0.02029       -1.18024        0.41982
H         -2.34577       -0.18047        1.35256
H         -2.71345        0.73733       -0.12256
H         -2.61283       -1.01862       -0.19025
H         -0.28922        2.03377       -0.11743
H         -0.49324        1.37786        1.52044
H          1.73438        0.96405        1.60702
H          1.95871        1.41196       -0.09212
H          1.64092       -0.70770       -0.89231
H          3.47017       -0.91191        0.93846
H          2.20881       -1.42996        2.01875
H          4.19226       -1.18405       -1.11073
H          4.73505       -1.50584       -3.46690
H          3.96011       -3.53348       -4.67049
H          2.64034       -5.24051       -3.47588
H          1.55647       -7.21012        1.42466
H          2.07081       -6.94480        3.82186
H          2.88920       -4.76249        4.67359
H          3.20691       -2.88148        3.15521
H         -0.16509       -1.38204        1.48261
H         -0.19274       -2.08478       -0.15857
