17

C          2.47582       -0.00871       -0.00335
C          0.97452        0.01069       -0.00423
C          0.26313       -1.19765       -0.00669
C         -1.13365       -1.19911       -0.01233
C         -1.82352        0.01932       -0.01606
N         -3.29130        0.02440       -0.02466
O         -3.87259       -1.07044       -0.02864
O         -3.86498        1.12329       -0.02788
C         -1.12509        1.23306       -0.01313
C          0.27202        1.22328       -0.00761
H          2.84558       -0.54197        0.87832
H          2.84603       -0.50430       -0.90654
H          2.89080        1.00430        0.01895
H          0.79731       -2.14634       -0.00488
H         -1.66266       -2.14977       -0.01451
H         -1.64796        2.18718       -0.01586
H          0.80888        2.17025       -0.00646
