26

C          0.41946       -0.87337       -0.85886
O          0.39761        0.06176       -1.90769
C          1.17684        1.25004       -1.75478
C          0.68021        2.29700       -0.71544
C          1.10843        2.39884        0.73885
C          1.37141        1.31456        1.57985
C          1.70812        1.50245        2.92572
C          1.77251        2.78345        3.46248
C          1.49729        3.87849        2.65349
C          1.16331        3.68650        1.31044
O          2.56506        1.07726       -2.01974
C          3.45905        1.05774       -0.93134
H         -0.04569       -1.79646       -1.21781
H         -0.18674       -0.51605       -0.02381
H          1.43809       -1.11424       -0.54971
H          0.87924        1.75110       -2.68630
H          0.95496        3.26521       -1.16040
H         -0.41740        2.25640       -0.70390
H          1.33670        0.29533        1.22456
H          1.91501        0.64114        3.55637
H          2.02898        2.92600        4.50855
H          1.53459        4.88352        3.06550
H          0.93890        4.56430        0.70609
H          3.50835        2.03592       -0.44801
H          3.21291        0.26778       -0.22133
H          4.45831        0.84492       -1.32375
