15

C          0.98007        0.07405       -0.07057
C          0.49105        1.51326       -0.11968
C          0.97720        2.21434       -1.35417
C          0.16092        2.72740       -2.28862
C          0.62049        3.41933       -3.50211
O         -0.12061        3.89250       -4.34499
O          1.95502        3.49026       -3.61652
H          0.61599       -0.49729       -0.93119
H          0.61940       -0.41695        0.83894
H          2.07439        0.02679       -0.06814
H         -0.60391        1.52377       -0.06687
H          0.85901        2.05319        0.76019
H          2.05651        2.30366       -1.46579
H         -0.91761        2.65721       -2.19772
H          2.09049        3.96738       -4.46064
