49

C          1.06952       -0.01227       -0.03848
C          0.86200        1.44072        0.35273
O          1.28491        2.33581       -0.68867
C          2.63100        2.52428       -0.81893
O          3.46350        1.97299       -0.10665
C          2.96525        3.56331       -1.91441
O          4.34653        3.26832       -2.26230
C          5.05096        3.99707       -3.15850
O          4.61401        4.92598       -3.82418
C          6.46718        3.49390       -3.29641
C          7.27811        3.55698       -2.01621
C          7.67820        2.38298       -1.33230
C          7.34214        0.97619       -1.75739
C          8.44014        2.49294       -0.15185
C          8.80348        3.73144        0.37611
C          9.60770        3.80425        1.63890
C          8.40117        4.88521       -0.29177
C          7.65682        4.81954       -1.48418
C          7.25311        6.14036       -2.09302
C          2.02117        3.49943       -3.12161
C          1.72055        4.94277       -3.52223
C          2.21022        5.84910       -2.40014
C          2.78758        4.95870       -1.30593
H          0.62358       -0.22013       -1.01617
H          0.62208       -0.67850        0.70517
H          2.13376       -0.25512       -0.11462
H         -0.20771        1.62168        0.50310
H          1.36521        1.68272        1.29558
H          6.41888        2.49945       -3.74253
H          6.97704        4.09217       -4.06209
H          8.26659        0.41130       -1.92281
H          6.76275        0.48208       -0.96986
H          6.75582        0.90473       -2.67207
H          8.74712        1.58672        0.36967
H          9.07461        3.30674        2.45546
H         10.57911        3.32039        1.49500
H          9.79002        4.84084        1.94084
H          8.66782        5.85846        0.11765
H          6.38429        6.54198       -1.56139
H          8.07601        6.86011       -2.01637
H          7.01392        6.06964       -3.15536
H          2.45683        2.94545       -3.96002
H          1.06634        3.01519       -2.89229
H          0.64858        5.08329       -3.69901
H          2.21878        5.19483       -4.46510
H          1.39454        6.46718       -2.00929
H          2.97050        6.54529       -2.77192
H          2.07907        4.94314       -0.46825
H          3.72836        5.36978       -0.92351
