10

C          1.12685       -0.01730        0.04582
C          0.36897        0.63276        0.93610
O         -0.99189        0.69783        1.02521
C         -1.73944       -0.01628        0.04720
H          0.71521       -0.60788       -0.76302
H          2.20884        0.03453        0.11679
H          0.80608        1.21858        1.73841
H         -1.53495        0.36621       -0.95822
H         -1.53495       -1.09043        0.10536
H         -2.80217        0.13698        0.25710
