33

C          0.61722       -0.94099        0.66247
C          0.01596       -1.39470       -0.44488
C         -1.25016       -0.82608       -1.01432
O         -1.18048       -0.85936       -2.43633
C         -1.03650        0.41017       -2.93789
N          0.16592        0.96005       -2.85753
C          0.26752        2.11033       -3.51060
O          1.45143        2.81245       -3.49835
C          2.54431        2.15311       -2.86686
C          2.59015        2.51172       -1.40984
C          2.78818        1.62806       -0.42308
N         -0.69596        2.69177       -4.21369
C         -1.84480        2.03090       -4.21981
O         -2.80930        2.57404       -5.04094
C         -4.13947        2.16250       -4.73729
C         -4.48482        0.87563       -5.43192
C         -4.98266       -0.20061       -4.80755
N         -2.08282        0.88745       -3.59235
H          0.21079       -0.11396        1.23642
H          1.54136       -1.38952        1.01422
H          0.46332       -2.22405       -0.98824
H         -2.07743       -1.48545       -0.72738
H         -1.47866        0.17069       -0.61253
H          2.56083        1.07190       -3.05451
H          3.45298        2.55142       -3.33322
H          2.44770        3.56074       -1.16323
H          2.80095        1.94417        0.61488
H          2.93257        0.57184       -0.62982
H         -4.32242        2.13759       -3.65522
H         -4.80066        2.93978       -5.13874
H         -4.29415        0.83127       -6.50106
H         -5.19157       -1.11562       -5.35215
H         -5.16587       -0.20112       -3.73708
