31

C          2.51933       -0.12924        0.01673
C          1.02010       -0.00251        0.00700
C          0.27812       -1.18958        0.13074
C         -1.11738       -1.17198        0.18650
C         -1.81751        0.02905        0.06192
N         -3.23254        0.04567        0.03956
C         -3.99264        0.92298       -0.68289
O         -3.66972        1.81360       -1.45031
C         -5.39916        0.56472       -0.46116
C         -5.43026       -0.48044        0.36240
C         -4.04470       -0.84301        0.68445
O         -3.78041       -1.76526        1.43796
C         -1.08130        1.21599       -0.05789
C          0.32830        1.22088       -0.07685
N          0.99112        2.46854       -0.11988
C          2.00905        2.80758       -0.96186
O          2.52742        2.18965       -1.87543
C          2.40049        4.18460       -0.62991
C          1.60445        4.61508        0.34706
C          0.66758        3.53344        0.67286
O         -0.17456        3.64420        1.54758
H          2.83002       -0.94356        0.68122
H          2.88476       -0.34669       -0.99143
H          3.00987        0.76940        0.39950
H          0.78986       -2.14838        0.20257
H         -1.63830       -2.12207        0.28213
H         -6.22155        1.08419       -0.92034
H         -6.28459       -1.00712        0.74929
H         -1.60927        2.16602       -0.12734
H          3.19851        4.70849       -1.12539
H          1.60600        5.56654        0.84886
