26

C          1.02347       -0.18708        0.10534
C          0.50482        0.98432        0.96179
C          1.18802        2.25350        0.43601
C         -1.06776        1.06365        0.98594
C         -1.66094       -0.33639        1.26426
C         -1.66234        2.10934        2.00225
C         -1.34813        3.57009        1.65366
C         -3.19428        2.00248        2.13029
H          0.59490       -0.15847       -0.90220
H          0.79099       -1.15431        0.56064
H          2.11463       -0.15660        0.00789
H          0.85773        0.81318        1.98706
H          0.65068        2.67676       -0.41805
H          1.27781        3.00888        1.21761
H          2.21664        2.05557        0.11318
H         -1.40237        1.35001       -0.02065
H         -1.36989       -0.69427        2.25744
H         -2.75239       -0.34064        1.19978
H         -1.34134       -1.07316        0.52232
H         -1.24213        1.90326        2.99521
H         -1.42276        3.75316        0.57745
H         -2.03467        4.26255        2.15428
H         -0.35487        3.85644        2.00152
H         -3.49484        1.07059        2.61826
H         -3.59929        2.80967        2.75116
H         -3.67658        2.05900        1.14854
