14

C          0.69871        1.38512       -0.25976
C         -0.73567        1.38553        0.25616
S         -1.73112        0.00008       -0.38508
C         -0.73669       -1.38567        0.25711
C          0.69772       -1.38667       -0.25873
S          1.69368       -0.00089        0.38124
H          1.19251        2.30734        0.06468
H          0.73100        1.37621       -1.35489
H         -0.76792        1.37626        1.35130
H         -1.22900        2.30810       -0.06798
H         -1.23068       -2.30809       -0.06645
H         -0.76900       -1.37566        1.35224
H          0.73007       -1.37863       -1.35387
H          1.19084       -2.30900        0.06644
