37

C          1.02179       -0.25930       -0.20415
C          0.66722       -1.08136        1.02580
C          1.09416       -0.42447        2.34160
C          0.45968        0.94073        2.62971
C         -1.07087        0.94579        2.69666
C         -1.67519        0.09449        3.81892
C         -1.27282        0.50130        5.24361
C         -1.61432        1.94866        5.60799
N         -3.06031        2.11936        5.54774
C         -3.57624        3.30054        5.54360
C         -5.07000        3.38709        5.47230
C         -5.64587        4.59573        5.46025
N         -4.92705        5.75797        5.50816
C         -3.56158        5.74149        5.58138
C         -2.84402        4.60965        5.60569
H          0.48143        0.69161       -0.22329
H          0.75587       -0.80824       -1.11313
H          2.09539       -0.04846       -0.23796
H         -0.40851       -1.28723        1.03140
H          1.16586       -2.05502        0.94791
H          0.87275       -1.11265        3.16570
H          2.18470       -0.30245        2.33627
H          0.87059        1.32456        3.57077
H          0.77622        1.65608        1.86158
H         -1.41196        1.98234        2.80097
H         -1.48189        0.60416        1.73977
H         -2.76791        0.13738        3.73057
H         -1.40772       -0.95776        3.66721
H         -1.77832       -0.17305        5.94675
H         -0.19781        0.34145        5.38424
H         -1.26536        2.14530        6.62844
H         -1.08536        2.62910        4.93358
H         -5.62855        2.46204        5.43340
H         -6.72294        4.71812        5.41144
H         -5.41741        6.64673        5.50744
H         -3.09264        6.71944        5.62079
H         -1.76698        4.62090        5.66878
