75

C          1.52997        0.44965       -1.13292
C          0.43852        1.44438       -0.71935
C          0.42344        2.60092       -1.72504
C         -0.93587        0.75387       -0.66361
N         -1.47702        0.60868        0.73530
C         -2.98946        0.56861        0.74629
C         -3.61983       -0.60520       -0.03067
O         -3.45544       -1.81845        0.72298
C         -5.15120       -0.44349       -0.26715
C         -5.60511        0.85500       -0.97146
C         -4.84083        1.28952       -2.20176
C         -4.77808        0.49003       -3.34963
C         -4.07409        0.91792       -4.47763
C         -3.44399        2.15985       -4.48127
C         -3.52547        2.98036       -3.36032
C         -4.22348        2.55059       -2.23055
N         -5.65736       -1.62938       -0.98300
C         -6.34952       -2.65576       -0.40985
O         -6.37851       -3.75954       -0.93468
O         -7.00431       -2.29275        0.71716
C         -7.65350       -3.28198        1.55382
C         -6.63194       -4.14241        2.27589
O         -6.59624       -5.40180        1.61039
C         -7.83412       -5.59246        0.92318
O         -8.66774       -6.48614        1.67511
C         -9.62647       -5.70566        2.38179
C         -9.89684       -4.52016        1.49060
C         -8.56151       -4.25339        0.81667
S         -0.64573       -0.53500        1.70801
O         -0.89672       -1.83515        1.11638
O          0.70739       -0.07058        1.91874
C         -1.45592       -0.45703        3.28401
C         -1.37386        0.71601        4.03678
C         -1.99492        0.77259        5.28771
C         -2.72220       -0.31824        5.77744
N         -3.22299       -0.30043        7.08301
C         -2.73443       -1.50600        5.03912
C         -2.12170       -1.57618        3.78574
H          1.36234        0.07993       -2.15091
H          1.56171       -0.41952       -0.47058
H          2.51657        0.92413       -1.10686
H          0.69547        1.87037        0.25700
H          0.16781        2.25028       -2.73123
H         -0.30841        3.36099       -1.43277
H          1.40525        3.08411       -1.77594
H         -1.65550        1.35006       -1.23602
H         -0.90787       -0.23060       -1.14556
H         -3.34275        0.56492        1.78181
H         -3.31446        1.53009        0.33782
H         -3.12626       -0.75913       -0.99561
H         -2.52208       -2.10891        0.61834
H         -5.62630       -0.44130        0.72175
H         -6.66481        0.77057       -1.24881
H         -5.56853        1.66512       -0.23099
H         -5.29568       -0.46425       -3.39519
H         -4.03220        0.28674       -5.36220
H         -2.90706        2.49561       -5.36474
H         -3.05481        3.96039       -3.36894
H         -4.28626        3.21885       -1.37381
H         -5.10692       -1.96868       -1.76019
H         -8.21037       -2.68291        2.28225
H         -5.62710       -3.71029        2.29055
H         -6.94518       -4.32825        3.30898
H         -7.63087       -6.05029       -0.04925
H         -9.19798       -5.40306        3.34293
H        -10.52253       -6.30283        2.57178
H        -10.31464       -3.66463        2.02798
H        -10.62325       -4.81498        0.72257
H         -8.73916       -3.94722       -0.21884
H         -0.81546        1.57281        3.66669
H         -1.89776        1.67555        5.88539
H         -3.45592        0.62435        7.42978
H         -3.95847       -0.97810        7.25710
H         -3.21813       -2.39444        5.43797
H         -2.15697       -2.50764        3.22516
