24

O          1.39616       -0.29241        0.49943
N          2.50681        0.03241        0.06104
O          3.12316        1.06958        0.33125
C          3.10499       -0.85433       -0.90689
C          2.50203       -0.94923       -2.16477
C          3.03122       -1.81906       -3.12930
Cl         2.12755       -1.90688       -4.59433
C          4.17428       -2.57942       -2.83377
O          4.83120       -3.51165       -3.58280
C          4.83200       -3.48700       -5.00352
F          3.67728       -4.03554       -5.45006
F          4.87911       -2.20105       -5.43903
C          5.99860       -4.23974       -5.59520
F          7.17775       -3.64249       -5.24036
C          5.97427       -5.66301       -5.11437
F          4.82281       -6.28974       -5.44199
F          6.97594       -6.37295       -5.69076
F          6.13252       -5.77137       -3.77810
C          4.74811       -2.46549       -1.54929
C          4.22315       -1.60761       -0.57920
Cl         4.97366       -1.57566        0.97162
H          1.60987       -0.36397       -2.38528
H          5.94202       -4.21323       -6.68800
H          5.62087       -3.07291       -1.30606
