36

C          1.22898       -0.16509        0.66427
C          0.44874        1.11629        0.91970
C          1.23781        2.41048        0.76906
C          1.27045        2.95851       -0.65850
C          2.34205        2.30056       -1.53588
C          1.62010        4.45891       -0.60279
O         -0.02619        2.90011       -1.25022
C         -0.76313        1.68555       -1.10525
C         -0.47346        0.68232       -2.23898
C         -1.29585       -0.58569       -2.22527
C         -0.66707       -1.82519       -2.03724
C         -1.40426       -3.00889       -2.03801
C         -2.78191       -2.96817       -2.23740
C         -3.41867       -1.74485       -2.43546
C         -2.68182       -0.55777       -2.43068
O         -0.77753        1.15070        0.21190
H          1.48233       -0.31305       -0.38298
H          0.62266       -1.03125        0.95316
H          2.15390       -0.18663        1.24873
H          0.16198        1.05754        1.97824
H          0.71464        3.15024        1.39256
H          2.24606        2.31531        1.18925
H          2.22403        2.60046       -2.58326
H          3.35027        2.57718       -1.20734
H          2.30613        1.21394       -1.51751
H          0.86288        5.02009       -0.04331
H          2.59476        4.63044       -0.13277
H          1.64044        4.89186       -1.61002
H         -1.80192        1.99958       -1.26248
H         -0.63343        1.18738       -3.20189
H          0.58090        0.40898       -2.25892
H          0.40901       -1.88067       -1.88879
H         -0.90267       -3.96007       -1.88519
H         -3.35664       -3.89010       -2.24015
H         -4.49377       -1.71484       -2.59543
H         -3.19855        0.38466       -2.59313
