35

N          0.90513       -0.26074        0.01423
C          0.29254       -1.46169        0.15136
N         -0.89642       -1.28538        0.77946
N          0.86594       -2.53052       -0.28117
C          0.19703       -3.70111       -0.16117
N         -0.92112       -4.03440       -0.78340
C         -1.21686       -5.38069       -0.56590
C         -2.35800       -6.01740       -1.29349
S         -1.83029       -7.15737       -2.62193
C         -0.74147       -6.10289       -3.65561
C         -1.45296       -5.19892       -4.66061
C         -1.84487       -3.86138       -4.05014
N         -0.86695       -2.90617       -4.00602
N         -3.05212       -3.78838       -3.61038
S         -3.65697       -2.50452       -2.87310
N         -2.45286       -1.81910       -1.92238
O         -3.99526       -1.49221       -3.84577
O         -4.62923       -2.93877       -1.89334
C         -0.38337       -6.00801        0.34035
S          0.85742       -4.94424        0.83734
H          0.83816        0.31870        0.84233
H          1.87254       -0.37419       -0.27382
H         -1.50900       -2.09424        0.75523
H         -1.37070       -0.44224        0.47541
H         -2.94185       -6.61185       -0.58119
H         -3.04620       -5.27270       -1.68662
H         -0.03301       -5.55260       -3.03076
H         -0.14351       -6.81816       -4.23290
H         -0.76479       -4.98642       -5.48937
H         -2.33106       -5.68657       -5.09873
H         -1.09988       -1.96528       -3.69140
H         -0.03876       -2.97408       -4.58491
H         -2.92653       -1.35945       -1.14850
H         -1.83910       -2.57599       -1.58189
H         -0.42254       -7.03075        0.68897
