22

C          0.77744       -0.06393       -0.05938
C          0.50905        0.58553       -1.39148
O         -0.17234        0.00977       -2.24306
N          0.95024        1.85442       -1.64727
C          1.74738        2.69636       -0.85646
C          1.27384        4.00493       -0.68069
C          1.96064        4.91169        0.12813
C          3.14421        4.52088        0.74161
Br         4.07444        5.73537        1.85086
C          3.66171        3.24549        0.52228
C          2.98734        2.32649       -0.30552
C          3.70262        1.04122       -0.61942
H         -0.10251       -0.65228        0.22128
H          0.93390        0.66900        0.73453
H          1.63187       -0.73813       -0.13624
H          0.41584        2.28225       -2.39524
H          0.33635        4.31868       -1.13486
H          1.55895        5.91023        0.27798
H          4.61433        2.96759        0.97002
H          4.74481        1.25035       -0.88786
H          3.69529        0.37925        0.25143
H          3.26852        0.51857       -1.47570
