24

O          0.96579        0.02373       -0.04738
C          2.19820        0.05094       -0.07022
C          3.00855       -1.19081       -0.39384
O          3.74448       -1.01338       -1.59082
C          2.99927        1.32353        0.21689
O          2.81482        2.29183       -0.81600
C          2.55382        1.89620        1.57967
O          2.76918        0.91582        2.60874
C          3.32235        3.20317        1.91501
O          3.00372        4.24496        0.98828
C          3.00661        3.71156        3.33126
O          3.47382        2.83070        4.34807
H          3.69724       -1.39054        0.43231
H          2.34263       -2.05296       -0.50016
H          3.13510       -1.19402       -2.33045
H          4.06397        1.06692        0.25861
H          3.07129        1.86839       -1.65719
H          1.48239        2.13416        1.54807
H          1.94994        0.38367        2.66279
H          4.40011        3.00612        1.85715
H          2.96814        3.84066        0.09506
H          3.47284        4.68939        3.49357
H          1.92746        3.85426        3.45749
H          3.27644        1.92110        4.04406
