32

C          1.14346       -0.01235       -0.01654
C          0.46414        1.17990        0.66315
C          0.90184        2.51646        0.04219
C          0.43393        2.70967       -1.37768
O         -0.23445        3.67253       -1.74305
C         -1.07232        1.03773        0.67203
C         -1.61861       -0.12046        1.51801
C         -1.21325       -0.14873        3.00167
C         -1.67408        1.03486        3.88023
C         -3.19709        1.18610        3.88590
C         -1.16347        0.83684        5.31197
O         -1.09027        2.24302        3.39529
H          0.76740       -0.16815       -1.03264
H          0.97261       -0.93506        0.54701
H          2.22687        0.13700       -0.07341
H          0.82543        1.20665        1.69767
H          0.51684        3.34740        0.64515
H          1.99498        2.59533        0.04217
H          0.76817        1.95234       -2.10556
H         -1.53097        1.97485        1.00652
H         -1.42695        0.89266       -0.35704
H         -2.71234       -0.11964        1.44050
H         -1.30029       -1.06714        1.06415
H         -1.61349       -1.07734        3.43089
H         -0.12196       -0.23950        3.06045
H         -3.69041        0.26431        4.21128
H         -3.50615        1.99486        4.55836
H         -3.57591        1.45830        2.89540
H         -0.06807        0.79569        5.33055
H         -1.44888        1.68150        5.94973
H         -1.55441       -0.08264        5.75890
H         -1.46782        2.98547        3.89801
