31

C          1.17802       -0.54987       -0.03914
C          0.98624        0.26583        1.23012
C          1.45245        1.71828        1.09814
C          0.73881        2.54678        0.02338
C         -0.78444        2.64052        0.16586
C         -1.28178        3.24179        1.48420
C         -0.86619        4.69474        1.73563
C         -1.49010        5.69978        0.76412
P         -3.32010        5.69978        0.76412
O         -3.36238        6.24399        2.19373
O         -3.35051        7.04546       -0.16444
O         -5.05010        5.69978        0.76412
H          0.54042       -0.18624       -0.85022
H          0.91596       -1.59697        0.14356
H          2.21936       -0.51516       -0.37454
H         -0.06507        0.22675        1.53512
H          1.55868       -0.20785        2.03696
H          1.34433        2.21084        2.07165
H          2.52763        1.72401        0.87827
H          1.16812        3.55557        0.02098
H          0.96917        2.13013       -0.96446
H         -1.17806        3.22368       -0.67464
H         -1.21904        1.63992        0.05597
H         -2.37562        3.16839        1.50767
H         -0.92864        2.62800        2.32088
H         -1.16553        4.95858        2.75685
H          0.22441        4.78988        1.70456
H         -1.12367        6.70525        1.00624
H         -1.15987        5.48338       -0.25755
H         -3.51292        7.83015        0.39143
H         -5.30051        6.22521        1.55101
