13

O          1.37812       -0.67636        0.87780
C          2.33994       -0.14420        0.34677
O          2.75236        1.09921        0.68177
C          3.15070       -0.75757       -0.75159
C          2.83768       -2.20772       -0.96786
O          2.65674       -2.69900       -2.07597
C          2.89968       -3.08990        0.28044
O          3.67969       -2.88314        1.19047
O          2.02759       -4.09891        0.26561
H          3.52564        1.42987        0.18522
H          2.93537       -0.21329       -1.67688
H          4.21698       -0.67313       -0.51948
H          2.14695       -4.56216        1.11900
