21

C          0.51973       -2.36693       -0.03439
C          1.09922       -0.98030       -0.00912
C          2.49717       -0.81921       -0.03898
C          3.08964        0.45196       -0.01916
N          4.49625        0.50983       -0.04370
C          5.28616        1.62467       -0.12698
N          6.61286        1.31005       -0.05298
O          4.94859        2.79067       -0.26273
C          2.26943        1.57719        0.03717
C          0.87896        1.43628        0.06483
C          0.29622        0.16749        0.04109
Br        -1.59980        0.06982        0.08083
H         -0.07834       -2.54902        0.86422
H         -0.09986       -2.50675       -0.92590
H          1.30536       -3.12985       -0.06073
H          3.12757       -1.70502       -0.07959
H          4.98887       -0.36682       -0.12356
H          7.19888        2.13665       -0.02583
H          6.87769        0.60048        0.61415
H          2.68011        2.58215        0.06140
H          0.26100        2.33022        0.10495
