22

Cl        -2.76510        0.26847        0.07936
C         -1.21453       -0.49860        0.03605
C         -1.18852       -1.88383        0.20552
C          0.02489       -2.56958        0.19196
C          1.23915       -1.88843       -0.00956
C          2.50082       -2.66677       -0.01416
C          3.35365       -2.67300        1.11322
Cl         2.95547       -1.81265        2.56426
C          4.55287       -3.39069        1.11371
C          4.92085       -4.13764       -0.00186
C          4.09270       -4.16654       -1.12491
Cl         4.60911       -5.14113       -2.45769
C          2.89350       -3.43215       -1.14082
Cl         1.88218       -3.46099       -2.55956
C          1.20154       -0.48530       -0.19832
Cl         2.69264        0.36806       -0.49638
C         -0.02225        0.21270       -0.16260
Cl        -0.06403        1.94006       -0.35760
H         -2.11403       -2.43825        0.34996
H          0.01752       -3.65063        0.33016
H          5.20460       -3.37473        1.98544
H          5.85311       -4.69800        0.01166
