17

O          1.13836        0.34045       -0.06553
C          0.44107        0.01282       -1.18975
C          0.83084       -1.00912       -2.03700
N          0.13783       -1.32936       -3.15299
C         -0.96419       -0.59185       -3.39720
C         -1.73175       -0.85633       -4.52505
C         -2.87930       -0.11598       -4.81363
C         -3.26767        0.90776       -3.95916
C         -2.50524        1.18348       -2.82299
C         -1.36052        0.45475       -2.52407
N         -0.65362        0.75564       -1.41738
H          1.91036       -0.24017       -0.00101
H          1.71312       -1.60910       -1.85256
H         -1.42677       -1.65799       -5.19326
H         -3.46372       -0.34113       -5.70219
H         -4.15919        1.49260       -4.17116
H         -2.80728        1.98478       -2.15257
