24

C          1.10430        0.25251       -0.13474
C          0.47162        1.19253       -1.11771
O         -0.04784        0.84234       -2.16822
O          0.60470        2.49263       -0.63837
C          0.05853        3.52419       -1.41736
C         -1.28134        3.52913       -1.79283
C         -1.78392        4.61263       -2.51501
C         -0.95904        5.70150       -2.84623
C         -1.45334        6.79906       -3.56901
C         -0.62502        7.87738       -3.88488
C          0.70751        7.87281       -3.48294
C          1.21615        6.78944       -2.76464
C          0.39701        5.69612       -2.43920
C          0.89355        4.60029       -1.71667
H          0.90076       -0.77865       -0.43746
H          0.67554        0.40826        0.85863
H          2.18539        0.40990       -0.11685
H         -1.93597        2.70098       -1.53868
H         -2.82883        4.60250       -2.81712
H         -2.49181        6.82184       -3.89188
H         -1.02164        8.72021       -4.44496
H          1.35277        8.71216       -3.72889
H          2.26044        6.80437       -2.46078
H          1.92843        4.58065       -1.38651
