36

C         -1.65603        2.25224        0.01054
N         -1.10392        0.90430       -0.00794
C         -1.99013       -0.17267       -0.04324
O         -3.21487       -0.02408       -0.05909
C         -1.41738       -1.56786       -0.06786
N         -2.33355       -2.60331       -0.15470
N         -2.00792       -3.68818        0.36927
C         -2.95669       -4.71981        0.21039
C         -2.75106       -5.88472        0.96543
C         -3.61481       -6.98023        0.86721
C         -4.70635       -6.91670       -0.00502
N         -5.61833       -8.06295       -0.11198
O         -5.37035       -9.06191        0.57743
O         -6.58028       -7.96371       -0.88716
C         -4.92971       -5.76925       -0.77563
C         -4.05400       -4.67992       -0.66592
C         -0.07843       -1.72238       -0.06486
O          0.53441       -2.96614       -0.12260
C          0.83475       -0.57694       -0.02223
C          2.22819       -0.76545       -0.01380
C          3.09845        0.32184        0.00908
C          2.58404        1.61135        0.02546
C          1.20092        1.81215        0.02225
C          0.31141        0.72390       -0.00093
H         -1.32071        2.77170        0.91410
H         -1.32590        2.79156       -0.88329
H         -2.74943        2.25166        0.01437
H         -1.90116       -5.93837        1.64394
H         -3.42089       -7.86349        1.47250
H         -5.77198       -5.70392       -1.46219
H         -4.23884       -3.79721       -1.27561
H         -0.18527       -3.62725       -0.11364
H          2.64766       -1.76972       -0.02892
H          4.17291        0.15773        0.01126
H          3.25814        2.46430        0.03983
H          0.84752        2.83856        0.03504
