54

C          1.12766       -0.30911        0.37621
C          0.73794        1.15914        0.45541
C          1.16233        1.97039       -0.77660
C          0.50881        1.53263       -2.09485
C         -0.97416        1.75307       -2.07385
N         -1.83141        0.80641       -1.76322
C         -3.02276        1.43638       -1.60718
C         -2.93053        2.80036       -1.83819
C         -3.99958        3.73760       -1.78342
C         -4.03190        5.04402       -1.46951
C         -5.33929        5.81766       -1.49080
C         -5.53167        6.79136       -0.35739
C         -5.38348        8.16437       -0.39000
C         -5.47965        8.74625        0.90481
C         -5.74354        7.80431        1.87364
S         -5.89737        6.23192        1.21905
C         -2.87443        5.83372       -1.02594
O         -2.11321        5.57953       -0.11670
O         -2.72814        6.92699       -1.79868
N         -1.62667        2.96893       -2.29349
C         -0.92840        4.14788       -2.80191
C         -1.43466        4.82618       -4.05845
C         -0.59928        5.80831       -4.62892
C         -1.01835        6.57645       -5.71800
C         -2.29869        6.39805       -6.24381
C         -2.74002        7.28369       -7.34554
O         -2.03493        8.06018       -7.96239
O         -4.05936        7.18890       -7.58879
C         -3.12426        5.40267       -5.71682
C         -2.68129        4.60666       -4.65427
H          0.60011       -0.82418       -0.43165
H          0.87243       -0.81734        1.31150
H          2.20426       -0.41956        0.21308
H         -0.34265        1.24134        0.61721
H          1.21502        1.59768        1.34016
H          0.93442        3.02708       -0.58563
H          2.25180        1.90333       -0.88443
H          0.97839        2.05526       -2.93352
H          0.71030        0.47181       -2.28069
H         -3.90520        0.87999       -1.31705
H         -4.96723        3.28453       -2.00984
H         -5.39363        6.36536       -2.44191
H         -6.19560        5.12877       -1.50246
H         -5.15406        8.71611       -1.29457
H         -5.34426        9.79940        1.11712
H         -5.85191        7.96080        2.93780
H         -1.96844        7.40079       -1.40394
H         -0.84228        4.85825       -1.98206
H          0.10161        3.85664       -3.01807
H          0.39210        5.99248       -4.21591
H         -0.35176        7.32816       -6.13616
H         -4.21534        7.84546       -8.29951
H         -4.12094        5.23850       -6.11976
H         -3.35182        3.83033       -4.30229
