32

C          1.06374        0.08693       -0.20467
C          0.71606       -1.38482       -0.36935
C          1.17624       -2.25350        0.80454
C          0.55736       -1.90414        2.16276
C         -0.96995       -2.00897        2.23439
C         -1.54776       -3.39644        1.92037
C         -1.07180       -4.53833        2.84463
C         -1.48396       -4.28529        4.29990
C         -1.63018       -5.90552        2.39607
C         -1.08307       -6.37678        1.05530
H          0.51661        0.53813        0.62823
H          0.79999        0.63989       -1.11192
H          2.13581        0.21957       -0.02765
H         -0.36242       -1.49155       -0.52730
H          1.19968       -1.75467       -1.28171
H          0.97077       -3.30367        0.56636
H          2.26712       -2.17452        0.89355
H          1.00375       -2.55348        2.92499
H          0.84921       -0.88534        2.44338
H         -1.29548       -1.69250        3.23197
H         -1.41559       -1.28438        1.54229
H         -2.64214       -3.32839        1.97395
H         -1.31539       -3.63555        0.87763
H          0.02199       -4.60071        2.81125
H         -2.56903       -4.16651        4.38935
H         -1.18258       -5.12078        4.94127
H         -1.00667       -3.38640        4.70112
H         -1.36981       -6.66285        3.14653
H         -2.72516       -5.87150        2.34995
H          0.01128       -6.36066        1.04923
H         -1.40662       -7.40437        0.85981
H         -1.44453       -5.75696        0.23020
