33

C          1.05375        0.19324       -0.27319
C          0.75573       -1.29644       -0.19391
C          1.19853       -1.93600        1.12515
C          0.52291       -1.38014        2.38423
C         -1.00332       -1.51895        2.42322
C         -1.52707       -2.95961        2.39572
C         -1.10018       -3.83017        3.58343
C         -1.57452       -3.33927        4.95615
C         -3.09620       -3.25593        5.13140
C         -3.83243       -4.58228        4.96739
O         -3.41633       -5.52219        5.94740
H          0.47528        0.75918        0.46275
H          0.79296        0.57719       -1.26462
H          2.11721        0.38970       -0.10353
H         -0.31279       -1.46649       -0.36383
H          1.28172       -1.79890       -1.01477
H          1.03060       -3.01756        1.06508
H          2.28312       -1.80671        1.23133
H          0.95873       -1.87470        3.26007
H          0.77834       -0.31957        2.49333
H         -1.37604       -1.01207        3.32078
H         -1.44047       -0.97287        1.57928
H         -2.62151       -2.93133        2.34022
H         -1.20097       -3.44853        1.47039
H         -1.46495       -4.85033        3.41650
H         -0.00730       -3.91253        3.60198
H         -1.15863       -4.00237        5.72431
H         -1.14585       -2.35119        5.16038
H         -3.28946       -2.87569        6.14243
H         -3.51430       -2.52177        4.43423
H         -4.90716       -4.42312        5.10185
H         -3.68834       -5.01633        3.97365
H         -2.49843       -5.77290        5.74729
