73

C          1.12761        0.10050       -0.28681
C          0.59161       -1.30166        0.01943
C          0.99402       -1.66259        1.46148
C         -0.94768       -1.39720       -0.23541
C         -1.32907       -1.12619       -1.68862
C         -1.49758       -2.74321        0.18063
C         -2.72624       -2.94247        0.65610
C         -3.11623       -4.16296        1.46838
C         -1.96444       -4.47958        2.45915
C         -4.59133       -4.19837        2.12603
C         -4.66330       -5.58941        2.83227
C         -4.11107       -5.33962        4.25218
C         -4.68404       -3.96493        4.48557
C         -4.76421       -3.14158        5.70405
C         -4.20368       -1.96729        6.08988
C         -4.72156       -1.26327        7.27068
C         -5.37785       -1.97186        8.21052
C         -5.81791       -1.48006        9.56504
C         -5.36856       -2.51611       10.60566
O         -5.55932       -2.05047       11.93608
C         -6.07829       -3.87257       10.39181
C         -6.56475       -4.09084        8.93390
C         -5.60673       -3.44572        7.91684
C         -4.21940       -4.23005        8.10863
C         -6.01377       -3.58370        6.40069
C         -7.03266       -2.83818        5.39403
C         -6.61017       -2.82600        3.68732
C         -5.02920       -3.14850        3.26646
C         -4.33389       -1.79483        3.06851
H          0.61969        0.85553        0.32266
H          0.99580        0.35929       -1.34053
H          2.20056        0.16204       -0.07314
H          1.10443       -2.00862       -0.64760
H          0.45518       -1.05072        2.19214
H          0.80220       -2.71542        1.68823
H          2.06798       -1.50486        1.61620
H         -1.43311       -0.63643        0.39219
H         -0.78569       -1.78401       -2.37476
H         -2.40205       -1.28284       -1.84939
H         -1.11741       -0.08861       -1.96190
H         -0.76274       -3.55328        0.20092
H         -3.46825       -2.15716        0.53018
H         -3.12077       -4.99003        0.74091
H         -2.01272       -3.83941        3.34598
H         -1.97623       -5.53591        2.74437
H         -0.95864       -4.35108        2.05667
H         -5.31821       -4.14762        1.30575
H         -5.71567       -5.90324        2.88542
H         -4.12709       -6.38989        2.31512
H         -3.03879       -5.37384        4.40321
H         -4.52256       -6.08862        4.94431
H         -5.65720       -4.48118        4.54376
H         -3.40621       -1.47741        5.54537
H         -4.51908       -0.20283        7.38307
H         -6.90989       -1.37175        9.60307
H         -5.40265       -0.49413        9.79832
H         -4.28344       -2.65190       10.50175
H         -6.48901       -2.18564       12.17856
H         -5.37376       -4.66930       10.67372
H         -6.91760       -4.00438       11.08173
H         -6.64004       -5.17130        8.74997
H         -7.57489       -3.68292        8.82459
H         -3.95100       -4.42298        9.14673
H         -4.25326       -5.19966        7.59859
H         -3.34995       -3.68659        7.71734
H         -6.22947       -4.65876        6.30363
H         -8.01599       -3.32334        5.45383
H         -7.18241       -1.79193        5.68818
H         -6.90099       -1.83765        3.30478
H         -7.26069       -3.55660        3.19084
H         -4.51760       -1.40672        2.06473
H         -4.72796       -1.01301        3.72478
H         -3.25420       -1.85836        3.23655
