14

N          0.75627        0.06829       -0.11300
C          0.18198        1.13379        0.58812
C          0.50293        2.45219        0.24457
C         -0.15546        3.52708        0.84675
C         -1.16997        3.28303        1.76498
F         -1.79279        4.32718        2.33110
C         -1.54191        1.97760        2.07214
Cl        -2.82212        1.66715        3.18160
C         -0.88134        0.90521        1.46805
H          0.71463       -0.82350        0.37176
H          1.68407        0.26068       -0.47899
H          1.27150        2.65273       -0.49816
H          0.10654        4.54959        0.59397
H         -1.19766       -0.11124        1.68581
