32

C          1.29181       -0.26044        0.08600
C          0.92256        1.07610        0.70886
C          1.26485        2.27494       -0.17961
C          0.47636        2.35620       -1.49205
C         -1.02777        2.54487       -1.31108
O         -1.27916        3.85404       -0.78014
C         -1.64045        3.96099        0.51861
O         -1.80904        3.01908        1.28349
C         -1.87073        5.39711        0.93308
C         -1.23995        6.48685        0.06058
C         -1.78428        6.64982       -1.36531
C         -3.29776        6.58301       -1.48015
H          0.74763       -0.43672       -0.84606
H          1.04260       -1.07489        0.77359
H          2.36484       -0.30951       -0.12311
H         -0.14094        1.06963        0.96333
H          1.46425        1.18088        1.65640
H          1.11081        3.19590        0.39519
H          2.33496        2.24456       -0.41939
H          0.86721        3.21255       -2.05705
H          0.66276        1.46550       -2.10041
H         -1.51003        2.51409       -2.29456
H         -1.48527        1.74999       -0.71412
H         -2.94941        5.55326        1.03101
H         -1.43477        5.49558        1.93584
H         -1.37843        7.44334        0.58123
H         -0.15597        6.32602        0.00106
H         -1.44190        7.61662       -1.75437
H         -1.34296        5.89850       -2.02870
H         -3.77354        7.34289       -0.85346
H         -3.60196        6.75578       -2.51745
H         -3.68013        5.59967       -1.18970
