18

Cl         1.04316        0.22228        0.49957
C          2.77980        0.14676        0.06093
C          3.17672       -1.29221       -0.33132
Cl         4.97437       -1.45607       -0.12866
C          2.81889       -1.69741       -1.77694
Cl         1.09391       -2.17303       -1.88769
C          3.23117       -0.61191       -2.79474
Cl         2.86371       -1.08056       -4.48769
C          2.76418        0.81960       -2.45916
Cl         1.02040        1.08568       -2.76334
C          3.19332        1.16965       -1.01930
Cl         2.77998        2.85587       -0.56476
H          3.28951        0.41022        0.99583
H          2.76273       -2.01277        0.38290
H          3.35374       -2.62213       -2.02611
H          4.32772       -0.57938       -2.79028
H          3.26953        1.51235       -3.14353
H          4.29016        1.18853       -1.02853
