18

N         -3.34762       -0.06602       -0.13421
C         -1.95787       -0.04420        0.00713
C         -1.26527        1.16643       -0.05099
C          0.13274        1.19215       -0.04068
C          0.86100        0.00061       -0.01701
Cl         2.58103        0.12764       -0.00425
C          0.17384       -1.21174       -0.02081
S          1.05843       -2.73333       -0.02670
O          1.75747       -2.85411       -1.28672
O          1.73124       -2.87249        1.24526
O         -0.06208       -3.89690       -0.06025
C         -1.22943       -1.23440       -0.03005
H         -3.81469        0.77486        0.19287
H         -3.79430       -0.90898        0.21491
H         -1.80919        2.10678       -0.10368
H          0.64609        2.15101       -0.06480
H          0.38327       -4.72382       -0.34165
H         -1.76300       -2.18105       -0.06491
