84

C          2.03959       -0.40684        0.01080
C          1.73936        0.94487       -0.14890
C          0.41132        1.37341       -0.14092
C         -0.63035        0.45388        0.03406
C         -2.07082        0.87425       -0.11980
N         -2.78396        1.44234        1.03146
C         -2.95608        0.52049        2.16319
C         -4.19764        0.79151        3.07759
N         -5.53527        0.25011        2.80909
C         -5.87241       -0.59465        1.66996
C         -6.45494        0.08597        0.44472
C         -7.83308        0.17501        0.21261
C         -8.32763        0.90182       -0.88072
C         -7.45228        1.53916       -1.76133
C         -6.08678        1.42920       -1.56578
C         -5.60839        0.69746       -0.48183
C         -6.63284        0.96000        3.47428
C         -7.10740        2.25947        2.77601
N         -6.50972        3.48694        3.32094
C         -7.19724        4.02604        4.50264
C         -8.66577        4.36371        4.33212
C         -9.07008        5.64654        3.94190
C        -10.42042        5.92508        3.71711
C        -11.37887        4.92362        3.86852
C        -10.99451        3.65031        4.27828
C         -9.65011        3.37958        4.53052
C         -6.18825        4.49135        2.28576
C         -5.25439        3.92639        1.16965
N         -4.06560        4.73597        0.85944
C         -4.36537        5.88567       -0.01360
C         -4.71425        5.60147       -1.46545
C         -3.71377        5.58885       -2.45096
C         -4.02921        5.33854       -3.78905
C         -5.34953        5.09930       -4.16226
C         -6.35523        5.11655       -3.19897
C         -6.04078        5.36994       -1.86099
C         -2.95301        3.89333        0.36070
C         -2.41513        2.82527        1.38011
C         -0.31300       -0.90234        0.21453
C          1.01411       -1.33071        0.19600
H          3.07267       -0.74178       -0.02053
H          2.53907        1.66416       -0.30291
H          0.19215        2.42450       -0.31034
H         -2.13945        1.55387       -0.97836
H         -2.61762       -0.01410       -0.46311
H         -3.01391       -0.51747        1.81774
H         -2.05562        0.56709        2.79071
H         -4.26431        1.86633        3.26461
H         -3.92093        0.37868        4.05838
H         -5.01902       -1.21071        1.36696
H         -6.60710       -1.33787        2.01222
H         -8.53712       -0.28798        0.89990
H         -9.39821        0.98860       -1.03721
H         -7.83059        2.12517       -2.59365
H         -5.38338        1.93123       -2.22678
H         -4.54968        0.63451       -0.33775
H         -6.36180        1.16325        4.51919
H         -7.49296        0.28176        3.55371
H         -8.19876        2.29058        2.77905
H         -6.89204        2.18811        1.71495
H         -7.10173        3.30777        5.32768
H         -6.66397        4.91502        4.86588
H         -8.33280        6.43349        3.80244
H        -10.72421        6.92255        3.41128
H        -12.42534        5.13545        3.66706
H        -11.73657        2.86446        4.39098
H         -9.36409        2.37794        4.84527
H         -5.69286        5.34428        2.76495
H         -7.10336        4.87339        1.81633
H         -5.84782        3.71687        0.27514
H         -4.91447        2.94878        1.49811
H         -5.17482        6.48122        0.42959
H         -3.50094        6.56325        0.00399
H         -2.67770        5.77807       -2.17978
H         -3.24400        5.33366       -4.54069
H         -5.59486        4.90414       -5.20299
H         -7.38675        4.93268       -3.48798
H         -6.84215        5.38077       -1.12559
H         -2.10479        4.55170        0.13280
H         -3.23788        3.41108       -0.58058
H         -2.77174        3.09608        2.38073
H         -1.32614        2.91770        1.45708
H         -1.10467       -1.64052        0.32705
H          1.24456       -2.38722        0.30442
