41

C          1.59617        0.14880       -0.31759
C          1.00621       -0.59502       -1.50709
C          1.14655       -2.11899       -1.42085
C          0.53396       -2.79348       -0.18662
C         -0.97538       -2.83605       -0.16579
C         -1.72479       -1.70084        0.16184
C         -3.12003       -1.75221        0.20392
C         -3.80210       -2.94780       -0.05433
C         -5.26323       -2.99896        0.02463
C         -6.05421       -2.43989       -0.98827
C         -7.45025       -2.47584       -0.90310
C         -8.09121       -3.06807        0.19120
O         -9.45535       -3.02919        0.11314
C        -10.23402       -3.69594        1.10614
C        -10.31537       -5.18874        0.83360
C         -7.30569       -3.61640        1.20494
F         -7.85187       -4.18911        2.28734
C         -5.91396       -3.58476        1.11738
F         -5.19261       -4.12374        2.11446
C         -3.05175       -4.08710       -0.37454
C         -1.65514       -4.03039       -0.43736
H          1.05857       -0.07141        0.60871
H          1.53315        1.22919       -0.48222
H          2.64925       -0.11187       -0.17398
H         -0.04356       -0.31320       -1.63579
H          1.52273       -0.25589       -2.41347
H          0.71953       -2.56024       -2.33031
H          2.21796       -2.35768       -1.43661
H          0.90960       -3.82516       -0.15325
H          0.89599       -2.33360        0.73961
H         -1.23228       -0.76242        0.40042
H         -3.67261       -0.85138        0.46254
H         -5.58580       -1.97575       -1.85464
H         -8.04611       -2.03983       -1.70328
H         -9.90253       -3.45986        2.12202
H        -11.24577       -3.28218        1.02569
H         -9.33512       -5.66834        0.90852
H        -10.99172       -5.67447        1.54242
H        -10.67827       -5.37231       -0.18322
H         -3.55104       -5.03381       -0.57080
H         -1.10280       -4.93522       -0.68208
