40

C          1.87301        1.14323       -1.07197
N          0.97105        2.26736       -0.87772
C         -0.28384        2.17859       -1.60580
C          0.83267        2.67823        0.53030
C         -0.05504        1.86108        1.51845
N          0.59152        0.66298        2.07073
C          1.60712        0.84347        3.12007
C          1.17490        0.56957        4.54924
C          0.39662        1.47486        5.28138
C          0.02238        1.18390        6.59868
C          0.41201       -0.01563        7.19545
C          1.19201       -0.92074        6.48414
C          1.58167       -0.62138        5.17919
C          0.07926       -0.60119        1.83255
C         -0.48229       -0.95613        0.60355
C         -0.95809       -2.24465        0.36661
C         -0.91324       -3.17925        1.38220
C         -0.35840       -2.77451        2.57848
N          0.15371       -1.54460        2.79114
H          1.75790        0.69175       -2.06403
H          1.75976        0.34925       -0.33422
H          2.90800        1.49770       -1.01317
H         -1.00476        1.48503       -1.17099
H         -0.76170        3.16328       -1.65043
H         -0.11731        1.87229       -2.64504
H          1.83634        2.80350        0.95533
H          0.41445        3.69398        0.50697
H         -0.29115        2.52939        2.35753
H         -1.03123        1.64101        1.07225
H          2.48043        0.22534        2.87302
H          1.98994        1.87281        3.09444
H          0.07508        2.41041        4.83365
H         -0.58378        1.88994        7.15983
H          0.10200       -0.24913        8.21013
H          1.48633       -1.86557        6.93213
H          2.17154       -1.34866        4.62410
H         -0.50553       -0.25210       -0.21113
H         -1.35393       -2.50812       -0.61070
H         -1.28723       -4.18428        1.24922
H         -0.30361       -3.44666        3.42882
