17

C          1.22849       -0.22114       -1.52634
C          0.58615       -0.01356       -0.15919
C          1.64134        0.14044        0.92757
O         -0.23943       -1.14572        0.15425
C         -1.56632       -0.70885       -0.13222
C         -1.52463        0.75913        0.19592
O         -0.22230        1.17222       -0.21768
H          1.81507       -1.14509       -1.55425
H          0.46110       -0.30052       -2.30487
H          1.87081        0.62397       -1.79530
H          1.16850        0.28128        1.90615
H          2.27117       -0.75292        0.99893
H          2.27650        1.01379        0.74579
H         -2.29540       -1.26489        0.46097
H         -1.76202       -0.88030       -1.19666
H         -1.60830        0.93130        1.27439
H         -2.29368        1.33750       -0.32158
