32

O          0.59603        0.97641        0.51031
N          1.66195        0.39732        0.27266
C          2.81529        0.96087        1.05078
C          3.25778        0.02540        2.21405
C          2.80921       -1.44342        2.25173
C          3.78409       -2.47582        1.67670
C          4.08709       -2.31915        0.18910
C          5.44999       -1.66787       -0.06031
C          5.61112       -1.18155       -1.50140
C          5.46346        0.33525       -1.68319
C          4.07652        0.88692       -1.31446
C          3.99350        1.41875        0.13878
N          4.07807        2.93836        0.10818
O          3.03195        3.46522       -0.28907
H          2.41431        1.85210        1.55704
H          4.33851        0.08963        2.38721
H          2.82675        0.47788        3.12067
H          1.81534       -1.58040        1.81451
H          2.68552       -1.70850        3.31175
H          3.32458       -3.46205        1.82664
H          4.70894       -2.48484        2.26615
H          3.27747       -1.78629       -0.31344
H          4.11277       -3.31818       -0.26647
H          6.21844       -2.42665        0.13760
H          5.64850       -0.86043        0.64790
H          4.91175       -1.70222       -2.16738
H          6.61663       -1.45413       -1.84552
H          5.64136        0.54804       -2.74544
H          6.25592        0.85986       -1.13602
H          3.33111        0.11817       -1.52972
H          3.85936        1.70122       -2.01992
H          4.92988        1.19112        0.65951
