30

C          1.48907       -1.59228        1.56196
C          0.84952       -1.44604        2.91587
O          1.00321       -0.46562        3.63588
O         -0.02200       -2.46029        3.18141
C         -1.37286       -2.00468        3.31897
C         -1.90147       -1.62291        1.91559
C         -2.82836       -2.82215        1.60934
C         -3.62155       -2.77455        2.92606
C         -2.38750       -3.11822        3.76204
C         -2.15168       -4.49404        3.13864
C         -1.08917       -5.39131        3.73281
C         -0.22019       -5.61880        2.56625
C         -0.71579       -5.06483        1.45179
C         -1.98763       -4.22530        1.61439
H          1.20204       -0.72940        0.94961
H          1.13113       -2.48950        1.04897
H          2.57475       -1.64254        1.65078
H         -1.42549       -1.15282        4.00706
H         -2.47850       -0.69185        1.97035
H         -1.13898       -1.48603        1.14605
H         -3.43766       -2.68913        0.71297
H         -4.03727       -1.78943        3.16812
H         -4.43226       -3.50851        2.97055
H         -2.55687       -3.15454        4.84033
H         -3.08085       -5.08093        3.25216
H         -1.53028       -6.35071        4.03959
H         -0.58809       -4.95710        4.59947
H          0.70592       -6.17367        2.63504
H         -0.16325       -5.12815        0.51794
H         -1.27334       -3.55606        1.10563
