16

N          2.26409       -0.15234        0.20538
C          0.87827       -0.11686        0.09471
C          0.13999       -1.29322        0.08249
C         -1.25072       -1.22013        0.00031
C         -1.86154        0.03094       -0.05980
C         -3.32054        0.22025       -0.14101
O         -3.89819        1.29009       -0.18062
O         -3.99298       -0.94362       -0.17278
C         -1.04411        1.15116       -0.03498
N          0.31075        1.09962        0.04169
H          2.58967        0.81031        0.15395
H          2.68453       -0.72968       -0.51287
H          0.63581       -2.25561        0.15059
H         -1.83907       -2.13318       -0.00654
H         -4.93505       -0.67562       -0.22387
H         -1.45895        2.15568       -0.07486
