19

C         -0.72256        2.56811        0.00029
C         -0.03236        1.23017        0.00400
C          1.37153        1.19250        0.00013
C          2.03328       -0.02876        0.00249
O          3.39433       -0.10089       -0.00103
C          1.32384       -1.22224        0.00861
C         -0.08136       -1.22030        0.01249
C         -0.76800       -2.55887        0.01898
C         -0.75554        0.01649        0.00924
Cl        -2.49050        0.06990        0.01099
H         -1.33565        2.67926       -0.89980
H         -1.34934        2.67804        0.89108
H         -0.00107        3.39234        0.00723
H          1.93620        2.12052       -0.00485
H          3.75627        0.80039       -0.00370
H          1.87178       -2.16228        0.01028
H         -0.48228       -3.12592       -0.87361
H         -0.46867       -3.12411        0.90830
H         -1.85792       -2.49625        0.02789
