35

C          0.89683       -0.14135        0.34212
S          0.17744        0.78272        1.72073
C          0.75481       -0.23516        3.06016
N          0.49201       -1.53752        3.00129
C          0.96729       -2.24052        4.01384
N          0.75590       -3.59904        3.96199
C          0.98469       -4.43830        5.12341
C         -0.34749       -4.89316        5.71244
C          1.82333       -5.63656        4.68561
N          1.64821       -1.71675        5.01981
C          1.84765       -0.40751        4.99749
N          2.58439        0.19174        5.99107
C          2.86755       -0.49635        7.23652
C          4.35850       -0.35232        7.53232
C          2.03004        0.09889        8.36467
N          1.40764        0.38464        4.03673
H          0.66688        0.37638       -0.59362
H          0.48045       -1.15067        0.28408
H          1.98442       -0.20165        0.44242
H          0.03782       -3.85183        3.29777
H          1.54530       -3.92082        5.91087
H         -0.93659       -5.46095        4.98383
H         -0.18492       -5.53227        6.58733
H         -0.94858       -4.03432        6.02992
H          2.77442       -5.30282        4.25510
H          2.04844       -6.28709        5.53688
H          1.30654       -6.23182        3.92496
H          2.47881        1.19733        5.98953
H          2.64990       -1.56956        7.18085
H          4.64663        0.69898        7.64103
H          4.62611       -0.87892        8.45412
H          4.95488       -0.77632        6.71632
H          0.96019       -0.00775        8.15550
H          2.24051       -0.40920        9.31214
H          2.23811        1.16607        8.49967
