38

C          1.32180       -0.58749        0.45501
C          0.88129       -0.77781       -0.97576
S          1.47251       -2.24689       -1.72215
O          0.77334       -3.22059       -0.90864
C          0.59955       -2.47269       -3.23386
S          1.04121       -1.37218       -4.58142
P          0.33455        0.57777       -4.14244
S          2.15070        1.36075       -4.51830
O         -0.60858        0.68769       -5.49393
C         -1.39425       -0.28047       -6.17857
C         -0.61234       -0.80287       -7.38747
C         -2.04805       -1.38069       -5.34028
O         -0.24212        2.16901       -3.78422
C         -1.09286        2.40771       -2.67405
C         -2.13101        1.31699       -2.46930
C         -0.25364        2.68808       -1.43692
H          0.95618       -1.39452        1.09612
H          0.92787        0.35836        0.84188
H          2.41268       -0.55885        0.52822
H         -0.20907       -0.77881       -1.04495
H          1.28055        0.03029       -1.58643
H          2.79937       -2.46503       -1.71847
H          0.81659       -3.49654       -3.55567
H         -0.47033       -2.40321       -3.02502
H         -2.23511        0.29662       -6.58230
H          0.45757       -0.58039       -7.31579
H         -0.73950       -1.87905       -7.54027
H         -0.96127       -0.30462       -8.29831
H         -3.03645       -1.62574       -5.74682
H         -1.48824       -2.32175       -5.37469
H         -2.17293       -1.09021       -4.29521
H         -1.63921        3.32964       -2.90543
H         -1.67480        0.33689       -2.31902
H         -2.76779        1.53565       -1.60631
H         -2.77043        1.23822       -3.35499
H          0.29093        3.63103       -1.56031
H         -0.86754        2.76244       -0.53479
H          0.50902        1.92732       -1.28220
