10

C          0.92954       -0.04539       -0.02117
C          0.22203        0.42383        1.01412
C         -1.25784        0.40687        0.97668
N         -1.84050        0.91363        2.09479
O         -1.91498       -0.01845        0.03828
H          0.44102       -0.44634       -0.90580
H          2.01370       -0.03834       -0.00561
H          0.71618        0.82115        1.89075
H         -2.85141        0.92630        2.12275
H         -1.32937        1.27257        2.88674
