13

O         -2.82278        0.05779       -0.01545
C         -1.46070        0.00460       -0.00096
C         -0.76747        1.21240        0.00646
C          0.62688        1.20589        0.02041
C          1.30418       -0.00894        0.02692
F          2.64352       -0.01745        0.04002
C          0.61261       -1.21704        0.01999
C         -0.78304       -1.21321        0.00593
H         -3.17163       -0.84870       -0.02328
H         -1.31180        2.15251        0.00116
H          1.18601        2.13560        0.02608
H          1.16603       -2.15057        0.02552
H         -1.31819       -2.15734        0.00067
