25

O          0.94494       -0.10959        0.45536
C          2.16552       -0.15517        0.41020
O          2.81836       -1.31132        0.12122
C          3.10720        0.98484        0.75340
S          2.48566        2.61510        0.23624
C          3.14298        2.73240       -1.48985
C          4.67221        2.69910       -1.48402
O          5.41422        1.85569       -1.96342
O          5.22131        3.74244       -0.81783
C          2.42752        1.77338       -2.43009
C          1.20999        2.17989       -3.00940
C          0.46647        1.31205       -3.81189
C          0.91892        0.01697       -4.04131
C          2.12400       -0.40218       -3.48687
C          2.87686        0.47123       -2.69767
H          3.79177       -1.25263        0.11778
H          3.21219        0.99062        1.84317
H          4.09975        0.81350        0.33113
H          2.89896        3.74609       -1.83748
H          6.18884        3.59852       -0.87979
H          0.81496        3.17673       -2.81918
H         -0.47777        1.64072       -4.23815
H          0.32706       -0.66968       -4.64032
H          2.47115       -1.41894       -3.65271
H          3.80707        0.09600       -2.28119
