50

C          1.26187        0.08310       -0.95918
C          0.77808       -0.14571        0.47806
C          1.95982       -0.12276        1.43493
O          0.14870       -1.43515        0.52388
C         -1.24040       -1.17693        0.76114
C         -1.42035        0.29144        0.42560
C         -2.72105        0.86771        1.01164
O         -3.77809        0.33975        0.17407
C         -4.05913        1.32775       -0.82182
O         -3.14997        1.21877       -1.91435
C         -2.75098        2.54799       -2.24955
C         -1.23167        2.62270       -2.35937
C         -3.39945        2.91760       -3.57731
O         -3.16742        3.46625       -1.23841
C         -3.79836        2.68573       -0.22345
C         -2.89373        2.39955        0.97860
O         -3.51536        2.93638        2.20203
C         -4.75036        2.49868        2.55996
O         -5.37976        1.60992        2.00201
C         -5.33137        3.25238        3.69627
C         -6.39409        2.65756        4.39511
C         -7.05353        3.35357        5.40818
C         -6.66057        4.65214        5.72353
C         -5.60264        5.25004        5.03487
C         -4.93302        4.55283        4.02281
O         -0.18699        0.85865        0.86569
H          2.03055       -0.64731       -1.23594
H          0.44950       -0.04805       -1.68254
H          1.65806        1.09409       -1.09255
H          1.62440       -0.25838        2.46814
H          2.66347       -0.93296        1.21188
H          2.49150        0.83321        1.38434
H         -1.43853       -1.39006        1.81653
H         -1.85545       -1.83442        0.14013
H         -1.43188        0.37363       -0.66107
H         -2.85721        0.49226        2.03216
H         -5.08103        1.20412       -1.19191
H         -0.90881        3.59434       -2.74824
H         -0.76575        2.52060       -1.37380
H         -0.83388        1.82749       -2.99704
H         -4.49095        2.86059       -3.50290
H         -3.14469        3.93897       -3.87727
H         -3.09305        2.22374       -4.36820
H         -4.72087        3.20061        0.05947
H         -1.92956        2.91250        0.90721
H         -6.72366        1.65192        4.13837
H         -7.88129        2.88748        5.93752
H         -7.18601        5.20194        6.50130
H         -5.31098        6.26907        5.27898
H         -4.12997        5.04425        3.48023
