22

C          2.48728       -0.45516       -0.35288
C          1.02585       -0.16100       -0.17594
C          0.18151       -1.29611       -0.12795
C         -1.20258       -1.18402       -0.00377
C         -1.77824        0.07181        0.08497
C         -0.96046        1.20019        0.06778
C          0.44070        1.10709       -0.04189
O          1.00414        2.34893       -0.03270
C          2.37078        2.57370        0.22423
C          2.97528        2.10271        1.53680
O          4.11173        1.67775        1.68347
O          2.16517        2.25628        2.60151
H          2.98717       -0.49566        0.61809
H          2.63355       -1.42956       -0.83474
H          2.97613        0.25956       -1.01394
H          0.60891       -2.29546       -0.20295
H         -1.82367       -2.07528        0.01552
H         -2.85554        0.17957        0.17143
H         -1.42282        2.18287        0.14730
H          2.97822        2.23376       -0.61746
H          2.49863        3.66388        0.23317
H          2.69030        1.92176        3.35735
