65

C          1.26175       -0.15499       -0.06891
C          0.86042       -1.53285        0.43330
C          0.80418       -1.62449        1.93523
N          0.99454       -0.61243        2.73152
N          0.72742       -1.11330        3.98066
C          1.16196       -0.46229        5.20038
C          2.69092       -0.28217        5.30489
C          3.22585        1.03716        4.76747
N          2.47951        2.13019        5.38582
C          3.19300        2.78125        6.50408
C          4.34467        3.74275        6.11419
N          3.96634        4.64657        5.00975
C          3.65029        5.95835        5.34546
C          2.35324        6.48447        5.27008
C          2.09628        7.83415        5.52507
C          3.14328        8.68855        5.85274
C          4.43483        8.17992        5.95021
Cl         5.73972        9.23618        6.32962
C          4.68511        6.82743        5.71608
C          3.25349        4.00742        3.89344
C          2.08863        3.12940        4.37981
C          0.34144       -2.45269        3.88428
O          0.04644       -3.21002        4.80692
N          0.50069       -2.78533        2.56142
C          0.71381       -4.16223        2.10066
C          2.21279       -4.50462        1.84824
O          2.83592       -5.44157        2.74632
C          3.37841       -5.02039        3.92674
C          4.22434       -5.90060        4.60215
C          4.68843       -5.60658        5.89532
C          4.25243       -4.46284        6.55289
C          3.44106       -3.57458        5.87367
C          3.09123       -3.82009        4.54357
H          0.67621        0.63838        0.40858
H          1.10491       -0.08141       -1.14968
H          2.31939        0.03963        0.13651
H         -0.14479       -1.76702        0.06177
H          1.53984       -2.29101        0.03445
H          0.61005        0.47547        5.29315
H          0.85039       -1.10127        6.03483
H          2.98176       -0.36180        6.36003
H          3.21781       -1.07130        4.76430
H          4.30492        1.10677        4.95954
H          3.12274        1.02373        3.67516
H          2.44770        3.35117        7.07372
H          3.57200        2.02260        7.20162
H          5.21234        3.15577        5.79074
H          4.66098        4.29673        7.00757
H          1.50996        5.85348        5.01241
H          1.08045        8.21363        5.45219
H          2.94817        9.74304        6.02257
H          5.70331        6.45048        5.76527
H          3.97689        3.38510        3.35123
H          2.89298        4.74566        3.16770
H          1.61584        2.63660        3.52055
H          1.29899        3.74351        4.82210
H          0.27556       -4.85917        2.82233
H          0.17065       -4.24654        1.15262
H          2.23548       -5.03083        0.88464
H          2.84447       -3.61970        1.71207
H          4.53198       -6.82715        4.12768
H          5.36299       -6.28721        6.40540
H          4.54049       -4.25298        7.57877
H          3.06724       -2.69297        6.38255
H          2.56664       -3.05438        4.01200
