35

C          1.03795       -0.14397        0.06967
N          0.54190       -0.54998        1.37020
C         -0.26948        0.37813        2.13887
C          0.98532       -1.74712        1.90448
O          1.75030       -2.51635        1.32183
O          0.49426       -1.96983        3.19355
C          0.92691       -3.09590        3.91978
C         -0.03624       -3.76468        4.66496
C          0.34888       -4.83866        5.45982
C          1.69045       -5.24225        5.49893
C          2.66835       -4.57945        4.73852
N          4.13765       -4.97226        4.81989
C          4.77061       -4.15450        5.93351
C          4.30832       -6.46278        5.09942
C          4.84692       -4.69607        3.48927
C          2.27264       -3.46969        3.97983
H          0.60361        0.80884       -0.24292
H          0.78030       -0.91498       -0.66305
H          2.12756       -0.05328        0.11502
H         -1.18774       -0.12849        2.45107
H          0.28655        0.68471        3.02998
H         -0.53038        1.26043        1.54926
H         -1.07579       -3.44559        4.63781
H         -0.39635       -5.35855        6.06033
H          1.92433       -6.07022        6.15921
H          4.28094       -4.40625        6.87964
H          5.83405       -4.40795        5.98146
H          4.65037       -3.09011        5.70745
H          3.81687       -7.03113        4.30364
H          5.38097       -6.68564        5.11182
H          3.90226       -6.70765        6.08392
H          4.27630       -5.16251        2.67990
H          4.95129       -3.61732        3.34478
H          5.85001       -5.13289        3.53959
H          2.98708       -2.86818        3.43127
