14

Cl         1.09339       -0.13245       -0.27367
C          2.85803        0.06311       -0.17698
C          3.28562        0.75891        1.11169
C          2.89132        0.05282        2.41699
C          3.31897       -1.40638        2.54023
Cl         5.08360       -1.59441        2.42937
H          3.31344       -0.92603       -0.27423
H          3.16670        0.65832       -1.04195
H          4.37372        0.89268        1.08622
H          2.86264        1.77157        1.12973
H          3.31437        0.62232        3.25472
H          1.80328        0.10481        2.54295
H          3.01029       -1.80452        3.51166
H          2.86352       -2.02928        1.76548
