37

C          0.89081        0.00341       -0.03087
C          1.21336        0.60208        1.34180
C          2.56093        0.03229        1.80622
O          1.31302        2.02612        1.17201
C          1.42233        2.74828        2.40795
C          0.25946        2.36810        3.29182
O          0.23212        2.81447        4.65113
C         -0.89095        2.06385        5.21466
C         -2.08943        3.05196        5.17834
O         -2.58254        3.55684        4.18848
O         -2.55077        3.39371        6.40683
O         -0.65278        1.52412        6.51257
C         -1.27842        0.23396        6.49576
C         -2.79749        0.30602        6.72977
C         -0.66149       -0.64297        7.57720
O         -1.06169       -0.32439        5.19811
C         -1.06599        0.81526        4.32267
C          0.18169        0.87295        3.45103
O          0.11077        0.23104        2.19244
H         -0.02845        0.43948       -0.43812
H          0.73063       -1.07908        0.03884
H          1.68967        0.19757       -0.75457
H          2.52954       -1.05806        1.88591
H          3.35837        0.32205        1.11129
H          2.85976        0.41424        2.78656
H          1.37071        3.81716        2.17174
H          2.39564        2.58208        2.87684
H         -0.63813        2.73390        2.77002
H         -3.20482        4.10288        6.24262
H         -3.23287       -0.69935        6.76336
H         -3.03749        0.83487        7.65662
H         -3.31672        0.81821        5.91308
H          0.42457       -0.70829        7.46228
H         -0.85896       -0.22811        8.57301
H         -1.05997       -1.66300        7.53873
H         -1.98944        0.80636        3.73429
H          1.02699        0.46254        4.01925
