8

F          0.90111       -0.14284        0.05486
C          2.24938       -0.06850        0.00145
F          2.70473       -0.00785        1.27710
F          2.70000       -1.24101       -0.50956
C          2.74680        1.11099       -0.81809
Cl         2.20630        1.04755       -2.51583
Br         2.15034        2.80580       -0.04565
H          3.83951        1.14919       -0.81595
