11

C          1.04534       -0.04703        0.10500
C          0.51953       -0.59136        1.39388
C         -0.25216        0.11526        2.23137
C         -0.74005       -0.48083        3.49103
O         -1.44561        0.15447        4.26429
H          0.72710        0.98583       -0.06878
H          0.69046       -0.65873       -0.73004
H          2.13933       -0.07111        0.10920
H          0.79971       -1.61616        1.62771
H         -0.55520        1.13794        2.03849
H         -0.43471       -1.52095        3.69216
