30

C          0.12295        0.01520        0.57311
N          0.21423       -1.30851        1.17392
C         -0.48472       -1.42339        2.46159
C          0.96954       -2.38083        0.69817
C          1.81115       -2.65659       -0.31083
O          2.40579       -3.93922       -0.35867
C          3.28243       -3.93388       -1.41686
O          3.99439       -4.86570       -1.74870
C          3.20905       -2.65023       -2.07170
C          3.96951       -2.08921       -3.26223
N          4.60037       -1.62380       -4.24987
C          2.31685       -1.89814       -1.41307
C          2.01202       -0.54162       -1.88792
C          1.12871       -0.35713       -2.96436
C          0.85263        0.92587       -3.44219
C          1.44959        2.03494       -2.84652
C          2.34807        1.86141       -1.79468
C          2.64656        0.57686       -1.33063
H         -0.67064        0.62392        1.02253
H         -0.13359       -0.04982       -0.48389
H          1.05495        0.56135        0.73445
H         -1.34531       -2.09167        2.36076
H          0.18934       -1.81841        3.22880
H         -0.85050       -0.45687        2.82715
H          0.81517       -3.22390        1.37675
H          0.65182       -1.20908       -3.44485
H          0.17282        1.05956       -4.28044
H          1.22107        3.03456       -3.20886
H          2.81502        2.72859       -1.33382
H          3.35091        0.46183       -0.50942
