25

C          1.24905        0.60006        0.87363
O          0.22131       -0.37941        0.97418
N          0.83586       -1.64964        1.23718
C          0.37843       -2.53769        0.18199
C          0.57375       -2.02206        2.55823
O         -0.07320       -1.34097        3.35666
N          1.01560       -3.24727        2.98472
C          2.11212       -4.03306        2.59259
C          3.16263       -3.56129        1.80072
C          4.23262       -4.40160        1.47279
C          4.25736       -5.71247        1.94246
Cl         5.56898       -6.74585        1.53175
C          3.22824       -6.18695        2.75019
C          2.16464       -5.34373        3.08376
H          0.78000        1.56832        0.67956
H          1.92008        0.36336        0.04205
H          1.81232        0.66523        1.80953
H          0.89146       -3.49920        0.22135
H         -0.69591       -2.71653        0.29571
H          0.57193       -2.07550       -0.79057
H          0.54055       -3.52881        3.83408
H          3.19309       -2.53338        1.45242
H          5.04639       -4.02230        0.86016
H          3.24580       -7.20733        3.12380
H          1.36786       -5.73225        3.71402
