37

C          1.43056        0.21867       -0.55791
C          0.96548       -1.03889        0.15390
C          1.24862       -1.09369        1.66777
C          0.51397       -0.06044        2.56456
C          0.69657       -0.34696        4.09271
C         -0.07312       -1.49687        4.77493
C          0.29993       -2.94694        4.41780
C          1.79002       -3.23784        4.60109
C         -0.51616       -3.92426        5.27233
C         -0.96958       -0.04303        2.23540
O         -1.63235       -1.06712        2.07395
N         -1.58122        1.17254        2.14193
C         -0.94901        2.36141        1.97537
O         -1.53481        3.34538        1.53588
N          0.37872        2.38972        2.24841
C          1.18508        1.29668        2.36607
O          2.40688        1.44632        2.35638
H          0.82546        1.08570       -0.28330
H          1.33046        0.09013       -1.64076
H          2.48106        0.43247       -0.34053
H         -0.10125       -1.18972       -0.04392
H          1.47671       -1.89360       -0.30688
H          0.97578       -2.10427        1.96953
H          2.33329       -1.02436        1.82180
H          1.76649       -0.45241        4.31512
H          0.39245        0.56134        4.63624
H          0.08070       -1.37398        5.85692
H         -1.14978       -1.35335        4.62547
H          0.01997       -3.14790        3.38067
H          2.10567       -3.05242        5.63339
H          2.01177       -4.28436        4.36464
H          2.40792       -2.62176        3.94230
H         -1.58984       -3.76047        5.13300
H         -0.29899       -4.96004        4.98842
H         -0.28839       -3.81144        6.33757
H         -2.55393        1.15323        1.86630
H          0.84942        3.26625        2.06792
