19

C          3.07627        0.47812        0.00154
C          1.62961        0.08489       -0.00357
C          1.24498       -1.25866        0.00432
C         -0.10909       -1.60802       -0.00175
C         -1.10826       -0.62342       -0.01416
C         -2.55042       -1.03711       -0.02692
C         -0.71179        0.71849       -0.01789
O         -1.60208        1.75526       -0.02716
C          0.63773        1.07134       -0.01283
H          3.30518        1.08618       -0.87963
H          3.30822        1.05110        0.90499
H          3.73115       -0.39920       -0.01829
H          1.99520       -2.04613        0.01389
H         -0.37622       -2.66278        0.00244
H         -3.06519       -0.64651        0.85671
H         -3.04276       -0.66421       -0.93084
H         -2.65888       -2.12687       -0.01722
H         -2.50410        1.40152       -0.01760
H          0.91091        2.12387       -0.01681
