22

C          1.04739        0.02683       -0.06952
C          0.44784        1.43291        0.10581
C          1.09676        2.38875       -0.90886
C         -1.06154        1.36362       -0.17709
C          0.72461        1.95640        1.53438
O          0.25485        1.03829        2.53840
C         -0.93273        1.17863        3.14332
N         -1.81539        2.09069        3.00930
O         -1.17318        0.17282        3.98347
H          0.87258       -0.35346       -1.08222
H          0.60504       -0.69040        0.63070
H          2.12972        0.03584        0.10098
H          0.91008        2.06058       -1.93774
H          0.69895        3.40451       -0.80568
H          2.18234        2.43840       -0.76858
H         -1.56263        0.63534        0.46856
H         -1.53681        2.33884       -0.02444
H         -1.25497        1.06192       -1.21282
H          1.80703        2.04417        1.69016
H          0.31914        2.96237        1.68668
H         -1.51447        2.78869        2.33225
H         -2.05453        0.33440        4.35426
