38

C          0.64705       -1.22542        0.05184
C          0.43282       -1.01752       -1.48020
C          1.75684       -0.93345       -2.27790
C          2.12789        0.53049       -2.57320
C          1.65298        1.37283       -1.40061
C          0.23848        1.44022       -1.24605
C         -0.32387        2.22096       -0.24159
C          0.49904        2.63027        0.80952
C          1.81652        2.14446        0.88841
C          2.43195        1.99317        2.13749
C          3.55007        1.17338        2.25272
O          3.90516        0.73660        3.49539
C          4.21944        0.70227        1.13569
C          3.70028        0.97435       -0.12359
C          2.43487        1.57816       -0.25441
C         -0.46427        0.22812       -1.86221
C         -1.86770       -0.25546       -1.50849
C         -1.89171       -1.68408       -2.08521
C         -0.46694       -2.14836       -1.90719
O         -0.09691       -3.30486       -2.04579
H         -0.03098       -1.97472        0.47554
H          0.47361       -0.32617        0.64568
H          1.66545       -1.55984        0.27822
H          2.57217       -1.40874       -1.71972
H          1.68429       -1.47623       -3.22697
H          3.18960        0.65928       -2.79999
H          1.61401        0.87626       -3.48169
H         -1.39910        2.34660       -0.15068
H          0.04434        3.12058        1.66851
H          1.94257        2.33792        3.04425
H          4.17321       -0.19540        3.39639
H          5.09656        0.06882        1.22405
H          4.21504        0.53962       -0.97557
H         -0.46624        0.37765       -2.95267
H         -2.03567       -0.27530       -0.42603
H         -2.64851        0.36233       -1.96203
H         -2.58361       -2.33581       -1.54883
H         -2.10387       -1.68363       -3.15833
