22

Cl        -2.72738        0.80521        0.00493
C         -1.22989       -0.04106        0.00527
C         -1.21323       -1.41368        0.23746
C          0.00186       -2.10376        0.24452
C          1.21570       -1.43065        0.00862
C          2.48781       -2.19194        0.02155
C          2.90411       -2.93140       -1.11111
Cl         1.88986       -2.95115       -2.53220
C          4.12009       -3.64288       -1.10646
Cl         4.59420       -4.56677       -2.50598
C          4.94694       -3.61093        0.02999
Cl         6.45750       -4.48079        0.03397
C          4.55230       -2.88165        1.16504
Cl         5.57653       -2.83667        2.57411
C          3.32640       -2.18766        1.16255
Cl         2.81476       -1.32031        2.58931
C          1.16833       -0.04188       -0.23540
Cl         2.60708        0.86466       -0.56181
C         -0.04551        0.65037       -0.22982
H         -2.14112       -1.95335        0.41288
H         -0.00751       -3.17702        0.42832
H         -0.06680        1.72174       -0.41065
