31

C          1.11648        0.12333       -0.26488
O          0.56129        0.92904       -1.30571
C          0.97095        2.23513       -1.27259
O          1.83062        2.66015       -0.50354
C          0.07858        3.12496       -2.19556
O         -1.10087        2.52444       -2.70413
C         -0.35948        4.33153       -1.35966
C          0.65544        5.32229       -1.83384
C          0.83604        6.63582       -1.13333
O         -0.24362        7.48938       -1.47672
N          1.28479        5.00683       -2.92412
N          0.80362        3.77402       -3.29845
C          1.60608        2.99143       -4.14674
N          2.87260        2.67546       -3.77779
C          3.64783        2.01159       -4.66851
C          3.22266        1.61548       -5.92552
C          1.91916        1.91361       -6.29601
C          1.10261        2.60743       -5.40430
Cl        -0.50819        2.99052       -5.90712
H          0.73660       -0.89530       -0.38202
H          0.79226        0.49646        0.71309
H          2.20853        0.09895       -0.32556
H         -1.04196        2.65628       -3.66587
H         -1.35929        4.69262       -1.62373
H         -0.30073        4.18641       -0.27810
H          0.83207        6.47777       -0.05164
H          1.77873        7.10609       -1.42578
H         -0.15353        7.67779       -2.42931
H          4.66226        1.80704       -4.33542
H          3.89110        1.09474       -6.60279
H          1.54992        1.62507       -7.27610
