19

C          0.93212       -0.17753        0.00587
C          0.46220        0.97119        0.90105
C         -0.90108        0.60877        1.52074
C          1.47042        1.26080        2.00439
O          1.27440        2.62673        2.37292
C          0.74121        3.30627        1.31458
O          0.64615        4.52282        1.26687
C          0.37600        2.33036        0.20013
O          1.22874        2.41851       -0.93021
H          0.27872       -0.28577       -0.86676
H          0.92841       -1.12860        0.54979
H          1.95289       -0.01651       -0.35851
H         -1.65386        0.45011        0.74033
H         -0.83257       -0.31363        2.10877
H         -1.27128        1.39696        2.18568
H          1.32558        0.62840        2.88640
H          2.50926        1.15000        1.67265
H         -0.64702        2.54023       -0.12957
H          2.13401        2.60320       -0.62469
