19

C          2.48295        0.01348       -0.00260
C          0.98278        0.00097       -0.00380
C          0.29331       -1.21733       -0.00325
C         -1.10635       -1.24698       -0.00913
C         -1.83700       -0.05297       -0.01738
C         -3.32834       -0.00196       -0.02696
N         -4.02779       -1.17600       -0.04739
O         -3.93340        1.06448       -0.01951
C         -1.14406        1.16580       -0.01662
C          0.25343        1.19336       -0.01037
H          2.86410       -0.51193        0.87895
H          2.86403       -0.47398       -0.90570
H          2.87641        1.03505        0.02005
H          0.84575       -2.15509        0.00177
H         -1.59153       -2.21574       -0.00619
H         -5.03674       -1.09993       -0.06163
H         -3.62361       -2.09735       -0.07095
H         -1.69323        2.10605       -0.02167
H          0.76291        2.15456       -0.01104
