32

C          1.10118        0.48810       -0.12406
O          0.51382        0.41697        1.17162
P          1.09049       -0.66694        2.39044
S          0.43563       -2.21689        1.24658
O          2.59648       -0.05940        2.14485
C          2.86081        1.22555        2.67997
O          1.66716       -1.75084        3.60925
C          2.61856       -2.73851        3.40638
C          3.77721       -2.57527        2.65777
C          4.57399       -3.67786        2.34322
C          4.26227       -4.96374        2.81008
S          5.28298       -6.31832        2.14692
C          6.84762       -5.87372        2.93656
O          4.81870       -7.60662        2.75344
C          3.15021       -5.12002        3.66042
C          2.72505       -6.44601        4.22712
C          2.33853       -3.99616        3.94497
H          1.26134        1.54168       -0.36783
H          0.40475        0.07276       -0.85833
H          2.05803       -0.03571       -0.19047
H          3.03721        1.91986        1.85370
H          2.02468        1.59133        3.28292
H          3.75859        1.17589        3.29972
H          4.08431       -1.62252        2.24937
H          5.42300       -3.51818        1.68161
H          6.71250       -5.78735        4.01686
H          7.57511       -6.66118        2.72393
H          7.22130       -4.93294        2.52548
H          1.97490       -6.31747        5.01530
H          2.28343       -7.06997        3.44417
H          3.56794       -6.95927        4.69817
H          1.43584       -4.12068        4.54013
