41

O          1.11210       -0.09970       -0.10289
S          2.54913        0.06452       -0.10162
O          3.28624        0.27824        1.12409
O          3.13902       -1.29498       -0.74364
C          2.95911        1.36912       -1.23550
C          3.65450        1.02346       -2.39766
C          3.97322        2.00655       -3.32609
C          3.62658        3.35041       -3.11030
N          3.91517        4.33373       -4.09281
N          5.06691        4.19321       -4.56204
C          5.35854        5.20995       -5.50138
C          5.81825        6.46416       -5.05603
O          5.90630        6.70792       -3.70895
C          6.19838        7.45606       -5.95504
C          6.13962        7.20105       -7.32360
C          5.69512        5.96240       -7.80882
C          5.65640        5.71861       -9.19209
C          5.21816        4.49355       -9.69252
C          4.80979        3.49652       -8.81574
C          4.84831        3.72166       -7.43713
C          5.29254        4.95076       -6.89884
C          2.92558        3.70853       -1.92466
C          2.55988        5.04947       -1.66625
C          1.86456        5.41848       -0.51489
C          1.51582        4.45262        0.41349
C          1.86791        3.12092        0.19212
C          2.57740        2.71088       -0.96754
H          2.80921       -2.04498       -0.20627
H          3.94869       -0.00308       -2.60045
H          4.50046        1.72446       -4.23458
H          6.24557        7.60518       -3.56613
H          6.55319        8.42283       -5.61218
H          6.45187        7.98131       -8.01549
H          5.97268        6.48568       -9.89639
H          5.19528        4.32070      -10.76548
H          4.46082        2.54188       -9.20097
H          4.51904        2.92401       -6.77429
H          2.82646        5.83387       -2.37426
H          1.59927        6.45901       -0.34802
H          0.97197        4.72800        1.31380
H          1.57010        2.40641        0.95774
