110

C          1.19630        0.14849       -0.87925
C          1.14315       -1.31390       -0.46509
C          1.55699       -1.53153        0.99234
C          0.69040       -0.78547        2.01181
C         -0.79548       -1.15100        1.94509
C         -1.07303       -2.62399        2.26101
C         -0.65302       -3.02347        3.67913
C         -1.37778       -2.21975        4.76313
C         -2.89637       -2.41571        4.72408
C         -3.30035       -3.87141        4.97738
C         -2.85262       -4.36092        6.35762
C         -3.48579       -3.54554        7.48814
C         -5.01348       -3.65487        7.48139
C         -5.47469       -5.10154        7.68391
C         -5.00199       -5.65846        9.02909
C         -5.56739       -4.85228       10.20120
C         -7.09872       -4.89624       10.22031
C         -7.60982       -6.33104       10.37962
C         -7.13096       -6.95111       11.69416
C         -7.64206       -6.16154       12.90271
C         -9.17339       -6.14833       12.94879
C         -9.73880       -7.56557       13.07210
C         -9.26609       -8.24944       14.35740
C         -9.72730       -7.48567       15.60258
C        -11.25500       -7.41093       15.68267
C        -11.88816       -8.80192       15.77243
C        -11.44043       -9.55574       17.02800
C        -11.84441       -8.82540       18.31246
C        -13.36300       -8.67063       18.43885
C        -14.08776      -10.01831       18.50802
C        -13.66775      -10.85861       19.71820
C        -13.94530      -10.16561       21.05583
C        -15.43118       -9.88165       21.29548
C        -16.29778      -11.14286       21.36812
C        -15.88394      -12.12915       22.46297
C        -15.93708      -11.51870       23.85489
H          0.46833        0.75100       -0.32722
H          0.96528        0.24907       -1.94349
H          2.19262        0.56534       -0.70246
H          0.13659       -1.70871       -0.64303
H          1.81537       -1.89124       -1.10970
H          1.54274       -2.60685        1.20707
H          2.59873       -1.21583        1.12227
H          1.08276       -0.98031        3.01674
H          0.79621        0.29561        1.87146
H         -1.34933       -0.50462        2.63503
H         -1.20211       -0.91609        0.95592
H         -2.14043       -2.82270        2.11247
H         -0.56322       -3.27248        1.54128
H         -0.83306       -4.09617        3.81379
H          0.42735       -2.90448        3.80715
H         -0.97717       -2.50037        5.74318
H         -1.15120       -1.15259        4.67130
H         -3.36212       -1.75099        5.45871
H         -3.30717       -2.09094        3.76270
H         -4.38573       -3.96657        4.86410
H         -2.88700       -4.53118        4.20915
H         -3.09686       -5.42431        6.45768
H         -1.76325       -4.32536        6.45295
H         -3.07224       -3.87556        8.44594
H         -3.19954       -2.49046        7.42217
H         -5.42536       -2.99797        8.25329
H         -5.43359       -3.26889        6.54787
H         -6.56624       -5.14649        7.59909
H         -5.11828       -5.74810        6.87791
H         -5.28278       -6.71429        9.10204
H         -3.90892       -5.67082        9.09208
H         -5.14698       -5.22914       11.13706
H         -5.23653       -3.80882       10.16246
H         -7.46875       -4.25069       11.02302
H         -7.52130       -4.45919        9.31200
H         -8.70369       -6.33427       10.31343
H         -7.29369       -6.96178        9.54402
H         -7.44710       -7.99709       11.73884
H         -6.03710       -7.00424       11.73375
H         -7.21948       -6.58452       13.81765
H         -7.27203       -5.13153       12.89036
H         -9.50425       -5.51460       13.77866
H         -9.59380       -5.66580       12.06277
H        -10.83186       -7.52481       13.02250
H         -9.45800       -8.18076       12.21092
H         -9.62251       -9.28265       14.37104
H         -8.17454       -8.34349       14.37665
H         -9.30719       -7.96059       16.49415
H         -9.31542       -6.47222       15.61860
H        -11.54124       -6.79082       16.53882
H        -11.66854       -6.88168       14.81885
H        -12.97753       -8.70574       15.73924
H        -11.64392       -9.40101       14.88818
H        -11.85378      -10.56818       17.00743
H        -10.35506       -9.70367       17.02661
H        -11.43361       -9.36075       19.17451
H        -11.37867       -7.83573       18.35821
H        -13.58958       -8.06280       19.32078
H        -13.76361       -8.09280       17.59899
H        -15.16814       -9.84385       18.51843
H        -13.90773      -10.59662       17.59458
H        -14.17756      -11.82646       19.67550
H        -12.60035      -11.09962       19.65933
H        -13.53867      -10.77955       21.86621
H        -13.39145       -9.22210       21.11585
H        -15.53700       -9.30241       22.21901
H        -15.82354       -9.23006       20.50601
H        -17.33952      -10.84181       21.52911
H        -16.28352      -11.66104       20.40172
H        -16.55615      -12.99377       22.42739
H        -14.87738      -12.51756       22.27145
H        -16.93340      -11.11715       24.06414
H        -15.70606      -12.27600       24.60936
H        -15.20911      -10.70951       23.96877
