9

C          1.05653       -0.04356        0.07677
N          0.56287       -1.31323       -0.38465
C         -0.22322       -2.14612        0.35344
O         -0.62880       -3.22106       -0.06507
H          0.71854        0.16414        1.09508
H          0.69300        0.73287       -0.60068
H          2.14849       -0.06797        0.04576
H          0.79409       -1.64343       -1.31432
H         -0.46183       -1.76710        1.36022
