27

N          2.42068       -0.31787        0.22982
C          1.03542       -0.14713        0.13152
C          0.23342       -1.17757       -0.36081
C         -1.15874       -1.04787       -0.38656
C         -1.77028        0.08946        0.15461
S         -3.54847        0.15020        0.18194
O         -4.02653       -0.81381       -0.78905
O         -3.92913        0.00405        1.57502
N         -4.17702        1.62497       -0.30037
C         -3.33234        2.72607       -0.32284
N         -3.50029        3.57179        0.69803
C         -2.71675        4.66671        0.67147
C         -1.80106        4.91690       -0.32510
C         -1.72815        3.96682       -1.31995
N         -2.48351        2.85249       -1.34132
C         -0.98053        1.05320        0.78235
C          0.41513        0.94314        0.74731
H          2.80205       -0.96989       -0.44910
H          2.93971        0.55413        0.25397
H          0.68409       -2.09566       -0.72971
H         -1.75712       -1.86470       -0.78622
H         -4.86723        1.86056        0.41209
H         -2.84982        5.35724        1.50039
H         -1.18100        5.80306       -0.32812
H         -1.03918        4.07592       -2.15280
H         -1.42210        1.88643        1.31788
H          1.01698        1.71106        1.22646
