35

C          0.83483       -0.03451        0.00222
C          0.51557        1.22626       -0.77911
O          1.05354        1.14374       -2.10624
C          2.35091        1.51259       -2.23140
O          3.11676        1.80040       -1.32221
C          2.75268        1.45625       -3.64483
C          3.74859        0.64754       -4.04143
C          4.47688       -0.33873       -3.17370
O          4.20089        0.62312       -5.34683
C          3.62561        1.43873       -6.30938
C          4.34400        1.29205       -7.62330
C          2.57867        2.25070       -6.04871
C          1.92627        3.03247       -7.12891
O          1.85763        2.66485       -8.29354
O          1.42831        4.19702       -6.65121
C          0.67131        4.99722       -7.57085
C          1.57385        6.05641       -8.16906
C          2.07200        2.30184       -4.64853
O          1.12245        3.00558       -4.31888
H          0.47082       -0.91910       -0.53011
H          0.37399       -0.00248        0.99346
H          1.91521       -0.15964        0.12532
H         -0.56951        1.33252       -0.87959
H          0.87973        2.12191       -0.26193
H          4.44629       -1.32993       -3.64072
H          5.52528       -0.04499       -3.06575
H          4.04581       -0.44876       -2.17557
H          5.42685        1.32469       -7.45284
H          4.10451        0.32488       -8.07623
H          4.13050        2.08289       -8.34397
H          0.19857        4.38954       -8.35122
H         -0.13561        5.47149       -7.00219
H          2.40349        5.59606       -8.71477
H          1.01692        6.70398       -8.85156
H          2.01459        6.67214       -7.37803
