32

N          2.63650       -1.53891       -0.24816
C          1.80013       -0.45479        0.02880
C          2.30340        0.85509       -0.01531
C          1.46687        1.97882        0.14021
C          0.09360        1.81876        0.30447
C         -0.39405        0.52740        0.27623
C          0.42505       -0.59269        0.11265
C         -0.42212       -1.81648        0.01689
N         -1.77356       -1.28820        0.11655
C         -2.94038       -2.13370       -0.10289
C         -3.72075       -1.81412       -1.37748
C         -4.81504       -0.77938       -1.18702
C         -5.68456       -1.08365        0.00507
O         -6.85940       -0.72855        0.06627
N         -5.10020       -1.75001        1.04998
C         -3.81523       -2.21999        1.14936
O         -3.39624       -2.67601        2.21400
C         -1.78926        0.07698        0.31714
O         -2.75117        0.80184        0.47995
H          3.61394       -1.36287       -0.02984
H          2.32505       -2.42012        0.14811
H          3.36689        1.02135       -0.17585
H          1.89678        2.97739        0.10987
H         -0.57334        2.66788        0.40777
H         -0.24516       -2.50626        0.84724
H         -0.30181       -2.31359       -0.95005
H         -2.54718       -3.15186       -0.23553
H         -4.19952       -2.74092       -1.72161
H         -3.04340       -1.49761       -2.17967
H         -5.45263       -0.77335       -2.07887
H         -4.41446        0.23005       -1.07981
H         -5.67111       -1.84693        1.87750
