25

N         -2.31731       -1.79974       -0.39048
C         -1.51085       -0.65754       -0.24317
C         -0.12443       -0.87089       -0.12589
C          0.75993        0.19022        0.06505
Cl         2.45365       -0.10680        0.12852
C          0.28131        1.48518        0.19687
C         -1.09431        1.70552        0.16539
C         -2.00216        0.64612       -0.02221
O         -3.30687        1.09933       -0.03521
C         -4.36570        0.24253        0.09286
C         -4.58222       -0.46384        1.27926
C         -5.68842       -1.31049        1.38736
C         -6.58563       -1.42225        0.32416
Cl        -7.93690       -2.47935        0.45449
C         -6.39923       -0.68692       -0.84445
C         -5.29297        0.15471       -0.95370
Cl        -5.08243        1.05269       -2.41339
H         -1.83256       -2.60158       -0.78295
H         -3.18078       -1.62264       -0.89174
H          0.27556       -1.87869       -0.21115
H          0.96255        2.31981        0.33320
H         -1.47151        2.72006        0.28626
H         -3.88179       -0.37647        2.10577
H         -5.84195       -1.88214        2.29948
H         -7.10852       -0.76836       -1.66332
