28

N          0.93489        0.18595        0.34686
C          0.15920       -0.73090        0.77947
O          0.66120       -1.85468        1.29260
N         -1.18531       -0.73791        0.81094
C         -1.96872        0.14737       -0.03145
C         -2.76827       -0.65168       -1.04975
O         -4.08637       -0.36525       -1.12118
N         -2.22386       -1.53029       -1.81326
C         -3.10631       -2.26839       -2.72154
C         -4.06019       -3.16093       -1.94357
O         -5.36917       -2.97469       -2.21259
N         -3.65753       -4.04335       -1.09823
C         -4.70827       -4.82932       -0.43025
C         -5.52905       -4.00932        0.54770
O         -6.69058       -4.23225        0.86171
O         -4.85639       -3.02115        1.17706
H          1.91433       -0.07598        0.43594
H          1.62665       -1.85122        1.27839
H         -1.56044       -1.67888        0.90245
H         -2.64916        0.71681        0.60892
H         -1.35453        0.86950       -0.58061
H         -4.37430        0.24920       -0.42623
H         -3.64349       -1.58504       -3.38829
H         -2.49457       -2.91650       -3.35841
H         -5.51924       -2.21062       -2.79197
H         -5.37441       -5.29297       -1.16672
H         -4.23031       -5.63416        0.13771
H         -5.51739       -2.68899        1.81728
