27

C          0.74067       -0.26616        0.04553
C          0.67807       -1.78659        0.02073
N          1.17196       -2.37812        1.26464
C          0.20374       -2.55401        2.35301
C         -0.58600       -3.84704        2.22124
C          2.55062       -2.56134        1.38605
O          3.36292       -2.24047        0.52273
C          3.08537       -3.16296        2.61286
C          2.92367       -4.51777        2.89419
C          3.47619       -5.03069        4.06464
C          4.17579       -4.16741        4.89685
N          4.36231       -2.85314        4.63621
C          3.82565       -2.38047        3.48463
H          0.13602        0.14225        0.86148
H          0.36479        0.14473       -0.89647
H          1.76787        0.08603        0.18520
H         -0.35013       -2.12211       -0.15088
H          1.28204       -2.15656       -0.81575
H          0.71041       -2.53217        3.32201
H         -0.48178       -1.69911        2.34127
H          0.06222       -4.72237        2.31260
H         -1.34569       -3.90706        3.00680
H         -1.09189       -3.91152        1.25304
H          2.39288       -5.16672        2.20469
H          3.37417       -6.08008        4.31866
H          4.62629       -4.52322        5.81964
H          4.00998       -1.32929        3.28156
