17

C          1.11825        0.08688       -0.02143
C          0.58479       -1.30217       -0.20910
C          1.46065       -2.39410       -0.14972
C          0.97700       -3.68606       -0.31885
C         -0.37542       -3.84871       -0.53989
N         -1.25365       -2.82576       -0.59493
C         -0.77391       -1.56660       -0.42084
C         -1.80741       -0.48231       -0.52141
H          0.74190        0.51327        0.91395
H          0.82739        0.72723       -0.86023
H          2.21248        0.09369        0.02689
H          2.52259       -2.24322        0.02594
H          1.64018       -4.54251       -0.28022
H         -0.80609       -4.83540       -0.68370
H         -2.07340       -0.32429       -1.57112
H         -2.70829       -0.77683        0.02731
H         -1.47000        0.46774       -0.09983
