12

O          1.14134       -0.00649        0.08171
C          0.65943       -0.86644       -0.95528
C          1.07249       -0.31166       -2.32841
I          3.20613       -0.17806       -2.58600
C          1.10633       -2.31793       -0.72300
I          0.03088       -3.20762        0.92832
H          2.11404        0.01822        0.02531
H         -0.43525       -0.81487       -0.91074
H          0.64928       -0.93008       -3.12746
H          0.66702        0.70045       -2.44231
H          0.91481       -2.92523       -1.61426
H          2.17334       -2.37319       -0.48512
