80

C          0.98628       -0.25201        0.43457
C          0.57326        0.71926        1.52917
C          1.08572        2.14687        1.31736
C          0.68941        2.80844       -0.00638
C         -0.82465        2.99070       -0.26364
C         -1.54796        3.80578        0.82562
C         -1.12817        5.26661        0.91728
C         -1.07215        3.60393       -1.65924
O         -0.63102        2.68337       -2.66556
C          0.57781        2.88179       -3.23998
O          1.26105        3.88895       -3.11208
C          0.99494        1.69362       -4.07897
C          0.44808        0.33192       -3.62932
C         -1.06997        0.12020       -3.74434
C         -1.65917        0.52215       -5.09691
C         -1.14713       -0.35251       -6.23920
C         -1.66339       -1.78963       -6.15376
C         -3.17998       -1.93956       -6.36568
C         -3.79445       -1.15262       -7.53440
C         -3.32444       -1.54750       -8.91853
O         -3.91930       -1.24588       -9.94465
O         -2.17940       -2.25962       -8.86041
C         -1.66225       -2.89276      -10.03772
C         -1.96661       -4.39847       -9.93920
C         -3.48516       -4.69128       -9.97649
C         -4.18275       -4.32640      -11.27931
C         -1.21261       -5.21499      -11.00346
C          0.31213       -5.27571      -10.82840
C          0.81477       -5.85449       -9.50169
C          0.32581       -7.26813       -9.22598
H          0.43336       -0.05091       -0.48461
H          0.75926       -1.28106        0.73066
H          2.05822       -0.18764        0.22201
H         -0.51797        0.71590        1.62268
H          0.97069        0.35243        2.48292
H          0.76370        2.77028        2.15815
H          2.18251        2.12736        1.36303
H          1.18609        3.78437       -0.06671
H          1.12769        2.20754       -0.80934
H         -1.27111        1.98689       -0.27113
H         -2.62810        3.77064        0.63341
H         -1.40564        3.33123        1.80250
H         -1.39820        5.81643        0.01045
H         -1.64018        5.75008        1.75520
H         -0.05190        5.37007        1.07840
H         -2.14862        3.73808       -1.81756
H         -0.60042        4.58424       -1.77760
H          0.75417        1.90152       -5.12491
H          2.08859        1.63703       -4.00462
H          0.95309       -0.44641       -4.21497
H          0.74306        0.15272       -2.59230
H         -1.28973       -0.93053       -3.52607
H         -1.60053        0.66188       -2.95631
H         -2.75209        0.47083       -5.04022
H         -1.43203        1.57162       -5.31372
H         -1.42745        0.09922       -7.19682
H         -0.05173       -0.36799       -6.24440
H         -1.11070       -2.39858       -6.87519
H         -1.40403       -2.23839       -5.18889
H         -3.40478       -3.00653       -6.48741
H         -3.69049       -1.62816       -5.44547
H         -4.87716       -1.32814       -7.51138
H         -3.63694       -0.07691       -7.41162
H         -2.03877       -2.43350      -10.95612
H         -0.58207       -2.71876      -10.01376
H         -1.64373       -4.73321       -8.94451
H         -3.64690       -5.75915       -9.78368
H         -3.98000       -4.16867       -9.14969
H         -3.87464       -4.99236      -12.09003
H         -5.26651       -4.42368      -11.15975
H         -3.97900       -3.29860      -11.58770
H         -1.60235       -6.23991      -11.01807
H         -1.42170       -4.79640      -11.99574
H          0.72087       -5.88097      -11.64752
H          0.73939       -4.27466      -10.95583
H          1.91146       -5.86653       -9.52666
H          0.53654       -5.20125       -8.66760
H          0.57747       -7.93935      -10.05312
H          0.79737       -7.65895       -8.31834
H         -0.75709       -7.29574       -9.07335
