26

C          0.79766       -0.16417       -0.12220
C          0.56300        0.69480        1.12531
C          1.11750       -0.05476        2.34986
S          1.51741        2.28561        0.93577
C          0.46445        3.14946        2.14869
C         -0.39083        4.37559        1.73749
N         -0.30318        4.66719        0.28205
C         -1.60832        3.43927        2.08502
O         -2.81061        3.49549        1.98820
N         -0.77424        2.36891        2.19221
C         -0.89783        1.15584        1.37911
C         -1.66930        1.23970        0.04437
O         -2.25963        0.26757       -0.41833
O         -1.52936        2.36661       -0.68323
H          0.54192        0.35874       -1.05047
H          0.19944       -1.08137       -0.07818
H          1.84804       -0.46845       -0.20643
H          0.57903       -0.99900        2.49341
H          2.17869       -0.30137        2.22595
H          1.01456        0.51870        3.27768
H          0.91600        3.23164        3.14396
H         -0.28573        5.25005        2.38447
H         -0.96965        5.38929       -0.01165
H          0.61648        5.01753       -0.00144
H         -1.44476        0.43400        1.99851
H         -0.95924        3.07584       -0.30383
