17

O          0.92782        0.03152        0.15944
C          2.14698        0.03059        0.14400
O          2.87312        0.95064       -0.51379
C          2.91072       -1.08009        0.75184
C          2.44301       -2.37724        0.49274
C          3.07510       -3.48432        1.06248
C          4.17514       -3.30537        1.90351
C          4.64364       -2.01930        2.18696
Cl         6.02655       -1.87910        3.21067
C          3.99670       -0.91988        1.61651
N          4.47408        0.40220        1.90523
O          5.06590        0.97348        0.97678
O          4.22022        0.87516        3.01638
H          3.85363        0.92290       -0.46445
H          1.57496       -2.52767       -0.15049
H          2.70576       -4.48736        0.85427
H          4.66082       -4.17791        2.33791
