14

C          0.98681       -0.05145        0.19270
C          0.47271        1.34976       -0.10762
C          0.97557        1.90279       -1.44998
C          0.47320        1.10884       -2.65444
I          0.29929        3.97187       -1.65100
H          0.58445       -0.78607       -0.51084
H          0.68015       -0.35563        1.19873
H          2.07974       -0.08755        0.14656
H         -0.62419        1.33900       -0.08317
H          0.79688        2.01061        0.70630
H          2.07193        1.91325       -1.45710
H         -0.62071        1.04875       -2.66974
H          0.79603        1.56902       -3.59497
H          0.86670        0.08764       -2.64461
