20

C          2.45322       -0.05436       -0.00252
C          0.95322       -0.00364        0.00319
C          0.21484       -1.19581        0.01184
C         -1.18059       -1.16381        0.00452
C         -1.83981        0.06764       -0.01924
S         -3.60564        0.10303       -0.04528
N         -3.95604       -0.62342       -1.51967
O         -4.10610       -0.78968        0.97342
O         -4.06017        1.46780       -0.17642
C         -1.11842        1.26298       -0.01670
C          0.27706        1.22384       -0.00673
H          2.81685       -0.59334        0.87808
H          2.80848       -0.55868       -0.90694
H          2.88903        0.95001        0.01528
H          0.72679       -2.15602        0.02307
H         -1.74409       -2.09358        0.01369
H         -4.51584       -1.46205       -1.36472
H         -4.39395        0.05657       -2.14159
H         -1.62888        2.22336       -0.02436
H          0.83326        2.15907       -0.00844
