23

C          1.21142        0.17078       -0.31545
C          0.34272       -0.60673       -0.96951
N         -1.04791       -0.49324       -1.01649
C         -1.75903       -1.61359       -1.66075
C         -2.43205       -1.22377       -2.97488
C         -3.80797       -0.59565       -2.77914
C         -3.78318        0.70782       -1.99058
C         -3.27360        0.53803       -0.56614
C         -1.75781        0.59187       -0.47637
O         -1.24823        1.58615        0.04893
H          0.92225        1.02004        0.29143
H          2.27434       -0.04435       -0.35650
H          0.76193       -1.44794       -1.51926
H         -2.48408       -2.02546       -0.94972
H         -1.05210       -2.42725       -1.86598
H         -2.56915       -2.13205       -3.57487
H         -1.78829       -0.55295       -3.55619
H         -4.47070       -1.31348       -2.27919
H         -4.24971       -0.40285       -3.76429
H         -4.80955        1.09293       -1.94847
H         -3.18596        1.45470       -2.52750
H         -3.65441       -0.36822       -0.08498
H         -3.65296        1.37445        0.03599
