32

C          1.09611        0.04036       -0.33363
C          0.47576        1.40350       -0.46923
O         -0.18682        1.72770       -1.45552
N          0.63500        2.30343        0.56196
C          1.60975        2.39266        1.53426
N          2.64426        1.60908        1.48754
C          3.64894        1.68422        2.46066
O          4.65904        0.99484        2.41113
C          3.38332        2.62284        3.55634
N          4.05739        2.84467        4.73797
C          3.31358        3.71557        5.39657
N          2.19458        4.07672        4.68651
C          1.14805        4.96231        5.14628
O          0.31270        4.31290        6.10461
C         -0.42298        3.17649        5.63725
C         -1.59448        3.53505        4.71994
O         -1.15692        3.94330        3.41675
C          2.25920        3.40081        3.51144
N          1.38055        3.35220        2.49898
H          0.54953       -0.66184       -0.97077
H          1.00808       -0.32088        0.69519
H          2.14165        0.06479       -0.64662
H          0.06857        3.12762        0.43211
H          3.52209        4.09861        6.38791
H          1.63320        5.81124        5.63965
H          0.58042        5.35643        4.30076
H          0.24360        2.44637        5.16985
H         -0.83040        2.70031        6.53582
H         -2.23544        2.65780        4.58607
H         -2.18041        4.35203        5.15125
H         -1.97160        4.23262        2.95921
H          0.42840        3.71267        2.60591
