8

O          0.91617       -0.01788       -0.03091
C          2.14255        0.01321        0.01771
O          2.86941       -0.60895       -0.95553
C          2.95130        0.71967        1.12284
Cl         2.54545        2.45094        1.11206
Cl         2.54545       -0.01691        2.68965
Cl         4.70931        0.52905        0.82465
H          3.84141       -0.53513       -0.84005
