37

O          1.06400       -0.30346       -0.16947
C          2.26981       -0.16672       -0.18407
O          3.06217        0.18015        0.87233
C          4.46664        0.26973        0.50746
C          4.44735       -0.07740       -0.94924
C          5.48153       -0.17518       -1.86928
C          5.16702       -0.54163       -3.18171
C          3.83791       -0.80251       -3.55774
C          2.80566       -0.69915       -2.62513
C          3.14583       -0.33605       -1.33442
C          5.22672       -0.75179        1.32976
C          4.84558       -2.11062        1.34250
C          5.58854       -3.06282        2.04518
I          4.95925       -5.05635        1.95788
C          6.71972       -2.67289        2.76086
O          7.44236       -3.62227        3.43474
C          7.10002       -1.32345        2.77264
I          8.81533       -0.75142        3.87068
C          6.35565       -0.36462        2.05752
O          6.79637        0.93425        2.09552
C          6.05741        1.94422        1.53055
C          4.91656        1.69535        0.75961
C          4.22153        2.79074        0.20431
C          4.66631        4.09908        0.40300
I          3.59529        5.65765       -0.48813
C          5.80650        4.34275        1.16947
O          6.25725        5.62163        1.36737
C          6.50103        3.26656        1.73800
I          8.22486        3.63899        2.91092
H          6.51220        0.02023       -1.58550
H          5.96015       -0.63007       -3.92226
H          3.61454       -1.08965       -4.58336
H          1.77392       -0.89957       -2.89771
H          3.96545       -2.43022        0.78635
H          8.18605       -3.17980        3.88186
H          3.32874        2.61647       -0.39451
H          5.65342        6.23422        0.91053
