46

C          1.47696        0.18524       -0.71502
C          1.24653       -1.22498       -1.23737
C          1.61787       -2.32191       -0.23494
C          0.87572       -2.27350        1.10517
C         -0.65235       -2.35432        1.01374
C         -1.20431       -3.68156        0.47716
C         -0.99495       -4.88940        1.39448
C         -1.71624       -4.87908        2.76122
C         -3.26388       -5.17390        2.82246
C         -3.63658       -6.35564        1.87514
C         -2.91833       -7.67923        2.13817
C         -3.62765       -5.54967        4.29833
C         -3.39202       -4.44958        5.33196
C         -4.06613       -3.89126        2.45102
O         -3.51129       -2.81144        2.23202
N         -5.42584       -3.87044        2.46002
O         -6.22237       -5.01702        2.50935
H          0.80295        0.42175        0.11363
H          1.29084        0.91519       -1.50953
H          2.50805        0.31486       -0.37133
H          0.20246       -1.33215       -1.55080
H          1.85394       -1.36416       -2.13993
H          1.45857       -3.29758       -0.70835
H          2.69452       -2.25999       -0.03133
H          1.25101       -3.08302        1.74152
H          1.14211       -1.34667        1.62732
H         -1.05882       -2.15562        2.01037
H         -1.02389       -1.54112        0.38008
H         -2.27047       -3.57242        0.25564
H         -0.73610       -3.89852       -0.49017
H         -1.25635       -5.79038        0.83194
H          0.07947       -4.99154        1.59067
H         -1.21300       -5.64734        3.36556
H         -1.49242       -3.93494        3.27012
H         -4.70298       -6.58444        1.93621
H         -3.47326       -6.05563        0.83285
H         -3.19865       -8.09874        3.10879
H         -3.20572       -8.41131        1.37564
H         -1.83069       -7.58423        2.10722
H         -4.67647       -5.85905        4.36529
H         -3.04076       -6.42069        4.61398
H         -3.97738       -3.55187        5.11396
H         -3.69235       -4.80397        6.32377
H         -2.33629       -4.17099        5.39158
H         -5.84632       -3.04345        2.04479
H         -6.55856       -4.99846        3.42518
