28

N          0.87310       -0.34106        0.03919
C          0.36011        0.33227        1.25822
C          0.86833        1.76312        1.48718
C          0.55500        2.83450        0.47369
C          0.03642        2.73086       -0.80280
N         -0.05306        3.98535       -1.34805
C          0.39762        4.92543       -0.45549
C          0.49186        6.31751       -0.58097
C          0.99401        7.03553        0.50875
C          1.38177        6.37275        1.66729
O          1.87203        7.05788        2.74236
C          1.28726        4.98559        1.78114
C          0.78273        4.23909        0.69587
C         -1.16515        0.28231        1.34856
O         -1.82047        0.32692        2.37662
O         -1.79238        0.23232        0.15105
H          0.26295       -0.07895       -0.73660
H          1.79389        0.03283       -0.18510
H          0.71991       -0.28391        2.09213
H          0.47932        2.10560        2.45641
H          1.96117        1.72675        1.59458
H         -0.28861        1.88316       -1.38808
H         -0.40030        4.19369       -2.27399
H          0.18703        6.82677       -1.48944
H          1.07394        8.11564        0.43056
H          1.86816        8.00573        2.53234
H          1.59728        4.49497        2.69811
H         -2.74030        0.24521        0.39923
