9

O          0.95773        0.00205       -0.05234
C          2.17836        0.05588       -0.00680
O          2.92602       -1.05271        0.21387
C          2.99304        1.32183       -0.17019
S          2.63038        2.13825       -1.74676
H          3.89166       -0.91525        0.22789
H          2.77398        1.99186        0.66611
H          4.06278        1.09675       -0.14720
H          2.73221        1.04756       -2.52185
