41

C          0.65244        0.08154       -0.23152
C          0.55864        1.59408       -0.13337
O          1.18082        2.32159       -1.20768
C          2.52466        2.22495       -1.34718
N          3.23372        1.15974       -1.12381
C          4.59138        1.28002       -1.33039
F          5.32985        0.15839       -1.19328
C          5.22923        2.41667       -1.65113
C          4.45836        3.58235       -1.82111
N          4.75651        4.83636       -2.04151
C          3.51316        5.44252       -2.18169
S          3.40670        7.16338       -2.61011
O          2.07162        7.36541       -3.13402
O          3.85366        7.85250       -1.41634
N          4.49564        7.58297       -3.87205
C          5.77951        6.90916       -3.89092
C          6.86655        7.47349       -3.19437
Cl         6.75333        9.04246       -2.47503
C          8.08422        6.79530       -3.08163
C          8.24445        5.54633       -3.67340
C          7.18937        4.98039       -4.38702
C          5.95344        5.64752       -4.50511
C          4.87408        4.87870       -5.18934
O          4.89958        3.66147       -5.30198
O          3.87568        5.68362       -5.61066
C          2.70335        5.00633       -6.06773
N          2.46522        4.61241       -1.97960
N          3.09765        3.43973       -1.73494
H          0.47184       -0.26675       -1.25189
H         -0.06946       -0.38626        0.44502
H          1.64052       -0.27542        0.07432
H         -0.49889        1.87844       -0.15612
H          0.96463        1.95368        0.81893
H          6.30150        2.44402       -1.79455
H          4.60437        8.59934       -3.81306
H          8.90944        7.23376       -2.52442
H          9.18517        5.00903       -3.57231
H          7.32235        3.99345       -4.83037
H          2.88035        4.57890       -7.05811
H          2.39524        4.23063       -5.35858
H          1.89650        5.74123       -6.13754
