39

C          1.39798        0.31710       -0.04488
N          0.53599        1.47855       -0.19969
C         -0.89037        1.15169       -0.09507
C         -1.38383        0.65615        1.27789
C         -1.13858        1.64492        2.39271
C         -2.03670        2.39665        3.07044
C         -3.47295        2.34755        2.72395
C         -4.25908        1.21529        2.96868
C         -5.61803        1.22430        2.65307
C         -6.20017        2.36851        2.10936
C         -5.42752        3.50904        1.88537
C         -4.06046        3.50551        2.19213
C         -3.20440        4.73063        2.00773
O         -2.89084        5.34495        3.25728
C         -1.96513        4.74315        4.07413
C         -1.47655        5.61435        5.06026
C         -0.54642        5.18568        6.00546
C         -0.10506        3.86921        5.98664
C         -0.59335        2.98719        5.02040
C         -1.51793        3.40610        4.04033
H          1.14563       -0.46573       -0.76734
H          1.35018       -0.09814        0.96611
H          2.43596        0.61060       -0.23069
H          0.77855        2.18566        0.49302
H         -1.45294        2.05508       -0.36220
H         -1.14657        0.40586       -0.85780
H         -2.44448        0.41077        1.17636
H         -0.89110       -0.28736        1.54043
H         -0.08119        1.75904        2.62983
H         -3.81685        0.32649        3.41144
H         -6.22482        0.34265        2.84177
H         -7.26139        2.37746        1.87362
H         -5.90012        4.40242        1.48420
H         -2.29585        4.52140        1.42781
H         -3.75595        5.47612        1.42259
H         -1.83182        6.64212        5.08908
H         -0.17981        5.87647        6.75979
H          0.60697        3.52151        6.73044
H         -0.25839        1.95227        5.05185
