25

C          2.19021       -0.83442        0.02042
C          1.49280       -2.13394        0.39197
C          1.25341       -2.30655        1.89445
C          0.46341       -1.20162        2.61441
C         -1.02143       -1.10048        2.25172
C         -1.25002       -0.55927        0.90631
C         -1.39776       -0.19701       -0.23229
C         -1.52262        0.13027       -1.63640
O         -2.07970       -0.65549       -2.39036
O         -0.97468        1.29928       -2.07273
C         -0.36896        2.20747       -1.14583
H          1.63593        0.04223        0.36242
H          2.28760       -0.75738       -1.06738
H          3.19308       -0.79174        0.45552
H          0.55143       -2.22491       -0.15695
H          2.11444       -2.96776        0.04326
H          0.75034       -3.26793        2.05725
H          2.23250       -2.38961        2.38360
H          0.51777       -1.42444        3.68873
H          0.95653       -0.23146        2.48686
H         -1.51305       -0.44561        2.98168
H         -1.49457       -2.08468        2.34580
H         -1.04803        2.44154       -0.32123
H          0.57699        1.80039       -0.78035
H         -0.15509        3.13535       -1.68385
