20

C          1.04861        0.10446        0.08961
C          0.66087       -0.08366       -1.36907
C          1.13229       -1.41589       -1.95717
C          0.56111       -2.67105       -1.28905
C         -0.96814       -2.78479       -1.29259
C         -1.62692       -2.76591       -2.66891
Cl        -1.12296       -4.14596       -3.67103
H          0.54007       -0.61627        0.73659
H          0.76826        1.10765        0.42665
H          2.12867       -0.00845        0.22647
H         -0.42379        0.02164       -1.47708
H          1.10976        0.72842       -1.95403
H          0.89426       -1.43098       -3.02722
H          2.22680       -1.46147       -1.89342
H          0.99416       -3.55033       -1.78093
H          0.90859       -2.71837       -0.25000
H         -1.24550       -3.71262       -0.77609
H         -1.39273       -1.97150       -0.69236
H         -2.71416       -2.82777       -2.56083
H         -1.39860       -1.84799       -3.21706
