26

O          1.08210        0.08781       -0.05626
C          0.62563        0.77966       -1.22405
C          1.05211        2.23144       -1.10329
C          2.33707        2.57918       -0.65145
C          2.73045        3.91615       -0.57590
C          1.84559        4.92471       -0.94972
C          0.56806        4.59798       -1.40007
C          0.17355        3.26050       -1.47998
C          1.06725        0.03821       -2.48282
C          0.71749       -1.32041       -2.62285
C          1.10376       -2.05260       -3.74874
C          1.83341       -1.43350       -4.75776
Cl         2.31390       -2.33235       -6.14330
C          2.17482       -0.08786       -4.65206
C          1.79171        0.64328       -3.52247
H          1.74362       -0.56280       -0.34128
H         -0.47074        0.74180       -1.18847
H          3.03888        1.80332       -0.35324
H          3.72642        4.16886       -0.22192
H          2.15092        5.96584       -0.88662
H         -0.12299        5.38608       -1.68814
H         -0.82703        3.02620       -1.83705
H          0.13914       -1.81717       -1.84466
H          0.83058       -3.10172       -3.83037
H          2.73805        0.40083       -5.44242
H          2.07212        1.69433       -3.47580
