21

C          1.04987       -0.04305        0.07523
C         -0.25398       -0.04305        0.07523
C         -1.77398       -0.04305        0.07523
C         -2.18515        1.10373        0.99689
C         -1.73768        2.45829        0.43273
C         -2.27683        2.70665       -0.98183
C         -3.80066        2.60591       -1.01921
C         -4.30733        3.74205       -0.14579
C         -4.74195        4.71663        0.60343
H          2.11551       -0.04217        0.07625
H         -2.17095        0.03182       -0.93911
H         -2.12327       -0.99320        0.49462
H         -3.26661        1.07988        1.16425
H         -1.72985        0.97375        1.98785
H         -2.06014        3.24931        1.11956
H         -0.64426        2.53165        0.41041
H         -1.95632        3.70645       -1.30410
H         -1.83799        2.00999       -1.70309
H         -4.15344        2.76889       -2.04373
H         -4.19523        1.64356       -0.68713
H         -5.09592        5.51368        1.21582
