12

F          3.15108        1.39706       -0.00501
C          2.22850        0.42595       -0.00350
C          2.63785       -0.90421        0.00053
C          1.68137       -1.91899        0.00228
C          0.32312       -1.59278        0.00042
C         -0.06980       -0.25246       -0.00352
Br        -1.90925        0.18386       -0.00536
C          0.88072        0.76482       -0.00579
H          3.69764       -1.13962        0.00232
H          1.99182       -2.96092        0.00523
H         -0.41903       -2.38744        0.00218
H          0.59399        1.81091       -0.00911
