53

C          1.12748       -0.17776        0.41098
C          0.90050        1.31175        0.61806
C          1.35008        2.15137       -0.58019
C          0.62476        1.82325       -1.88964
C         -0.89465        2.00887       -1.82273
C         -1.32383        3.45376       -1.54840
C         -0.88682        4.43626       -2.64026
C         -1.48114        4.11821       -4.01679
C         -3.01146        4.18938       -4.04496
C         -3.55487        5.58182       -3.70742
C         -3.11814        6.65930       -4.70653
C         -3.61493        6.40286       -6.13341
C         -5.14144        6.34479       -6.24365
C         -5.82954        7.66405       -5.87860
C         -5.51269        8.82128       -6.83367
C         -5.89387        8.56200       -8.28910
C         -7.38300        8.49764       -8.47199
O         -8.10248        9.41273       -8.83842
O         -7.90532        7.30077       -8.14792
H          0.52521       -0.56742       -0.41531
H          0.84697       -0.73216        1.31108
H          2.18085       -0.38259        0.19569
H         -0.15648        1.49406        0.84180
H          1.45981        1.63629        1.50285
H          1.21883        3.21260       -0.33761
H          2.42687        2.01188       -0.73310
H          1.04504        2.44355       -2.68951
H          0.84248        0.79183       -2.18727
H         -1.33485        1.65746       -2.76262
H         -1.32181        1.35859       -1.05198
H         -2.41279        3.48280       -1.42928
H         -0.92469        3.79083       -0.58577
H         -1.16148        5.45158       -2.33409
H          0.20520        4.45411       -2.71965
H         -1.05591        4.80651       -4.75517
H         -1.16466        3.12334       -4.34777
H         -3.36476        3.87156       -5.03193
H         -3.43866        3.46136       -3.34682
H         -4.64748        5.53378       -3.65105
H         -3.23909        5.88024       -2.70210
H         -3.46910        7.63461       -4.35333
H         -2.02588        6.74229       -4.72125
H         -3.21630        7.17933       -6.79505
H         -3.19702        5.46332       -6.51247
H         -5.41301        6.03821       -7.25865
H         -5.53669        5.55101       -5.60032
H         -6.91155        7.50032       -5.83893
H         -5.55455        7.96415       -4.86109
H         -6.03570        9.71592       -6.47450
H         -4.44280        9.05522       -6.78384
H         -5.52327        9.38298       -8.91403
H         -5.43430        7.65549       -8.69528
H         -8.87253        7.42609       -8.24185
