13

C          1.04945       -0.14266        0.09205
O          0.46729        0.07301       -1.18636
C          0.86816        1.31937       -1.74386
O          0.36128        2.43718       -1.02372
C         -1.05240        2.53500       -1.13219
H          0.73381       -1.12658        0.44946
H          0.70580        0.60999        0.80793
H          2.14176       -0.13130        0.02672
H          1.96205        1.38440       -1.76133
H          0.52622        1.36084       -2.78408
H         -1.35414        2.63567       -2.17920
H         -1.53832        1.66493       -0.68074
H         -1.37537        3.42856       -0.59096
