33

C          1.30462        0.03584       -0.00479
C          0.35547       -0.76544       -0.49670
O         -1.03887       -0.62110       -0.43209
C         -1.68819        0.39049        0.22256
O         -1.19256        1.24321        0.94701
C         -3.17437        0.29631       -0.03456
C         -3.54132        0.44001       -1.51165
C         -3.43147       -0.82537       -2.37169
C         -4.06561       -2.12101       -1.84293
C         -5.61370       -2.25824       -1.83488
C         -6.19000       -2.08058       -3.24904
C         -5.95067       -3.68460       -1.34696
C         -6.30320       -1.27007       -0.88345
H          1.08664        0.94093        0.55000
H          2.35211       -0.20462       -0.15351
H          0.57967       -1.66560       -1.05842
H         -3.56015       -0.61387        0.42986
H         -3.63545        1.13110        0.50925
H         -4.55874        0.83253       -1.58622
H         -2.90443        1.21063       -1.96613
H         -3.82175       -0.60174       -3.37108
H         -2.36562       -1.03089       -2.53219
H         -3.67271       -2.92807       -2.47938
H         -3.67134       -2.34285       -0.84446
H         -5.72905       -2.78048       -3.95485
H         -7.27082       -2.26263       -3.25941
H         -6.02973       -1.06561       -3.62674
H         -5.57436       -3.85182       -0.33105
H         -7.03312       -3.85570       -1.33199
H         -5.50495       -4.44435       -1.99861
H         -5.83389       -1.27276        0.10534
H         -6.29336       -0.25002       -1.27278
H         -7.35879       -1.53184       -0.74345
