12

Cl        -2.75234        0.27405       -0.01862
C         -1.20940       -0.50995       -0.00494
C         -1.20739       -1.91012        0.00141
C         -0.00316       -2.61091        0.01236
C          1.20238       -1.91237        0.01655
C          1.20711       -0.51220        0.01010
Cl         2.75155        0.26892        0.01536
C         -0.00047        0.20262       -0.00037
Cl         0.00119        1.93826       -0.00727
H         -2.14615       -2.46055       -0.00216
H         -0.00421       -3.69880        0.01750
H          2.14011       -2.46455        0.02486
