18

C          0.91051       -0.05760       -0.43417
O          0.28572        1.21616       -0.39849
C          0.95167        2.18296        0.41120
C          0.44146        2.21004        1.86121
C          0.92616        1.01418        2.68178
C          0.89213        3.50536        2.54176
H          0.64805       -0.53626       -1.38214
H          0.52523       -0.68829        0.36902
H          2.00056        0.01081       -0.37414
H          2.04069        2.06472        0.36163
H          0.72675        3.15063       -0.05347
H         -0.65515        2.18558        1.85119
H          2.00940        0.88143        2.59226
H          0.68970        1.14653        3.74336
H          0.43701        0.09034        2.36516
H          0.51253        4.38075        2.00402
H          0.51392        3.55919        3.56828
H          1.98453        3.57584        2.57802
