8

F          1.04761       -0.04334        0.08498
C          2.41045       -0.06486        0.05104
Cl         2.98043       -1.32404        1.17955
C          2.91062       -0.28866       -1.37098
F          2.48317        0.69964       -2.19588
F          4.26545       -0.27843       -1.42698
F          2.49066       -1.46195       -1.89500
H          2.76474        0.89827        0.42851
