33

C          1.10014       -0.11884       -0.32006
N          0.51163        1.12071       -0.85748
C         -0.67082        1.58392       -0.04862
C         -1.64227        2.42735       -0.91222
C         -1.55420        0.40223        0.45422
C         -0.22654        2.37633        1.20114
C          0.77321        3.48185        0.88875
O          1.23341        4.06388        2.11042
C          1.96288        2.93735        0.10951
C          1.55110        2.16516       -1.16253
C          2.85186        1.55959       -1.77041
C          1.05543        3.14308       -2.25790
H          0.37123       -0.93407       -0.28667
H          1.51818        0.02249        0.68213
H          1.87951       -0.52865       -0.96816
H         -1.77687        1.98271       -1.90508
H         -2.63759        2.48358       -0.45371
H         -1.33368        3.46481       -1.03288
H         -1.03993       -0.22041        1.19460
H         -2.46081        0.76881        0.95177
H         -1.87563       -0.23472       -0.37841
H          0.21860        1.69576        1.94055
H         -1.09632        2.81427        1.70940
H          0.28861        4.28870        0.33247
H          1.67417        3.36813        2.62676
H          2.55249        2.28703        0.77111
H          2.63645        3.76738       -0.14314
H          2.62803        0.93693       -2.64484
H          3.54009        2.34735       -2.10158
H          3.41348        0.96014       -1.04553
H          0.38523        3.91646       -1.88582
H          1.89065        3.69267       -2.70997
H          0.55359        2.60530       -3.07058
