13

C          0.92193        0.06664       -0.07158
C          0.43276       -1.28617        0.44408
C          0.92192       -1.53905        1.86958
O         -0.99975       -1.27700        0.45166
C          0.93943       -2.39042       -0.46933
N          1.35975       -3.30649       -1.22707
H          0.55688        0.88332        0.56163
H          0.54038        0.26066       -1.08116
H          2.01573        0.11732       -0.10638
H          0.55688       -0.76394        2.55306
H          0.54037       -2.49435        2.24945
H          2.01573       -1.56373        1.92590
H         -1.29247       -0.56276        1.04247
