23

C          1.26527       -0.02869       -0.15866
C          0.72218       -0.55618        1.15738
C          0.93588        0.38368        2.34385
C          0.27260        1.76086        2.26487
C         -1.25822        1.83092        2.27005
N         -1.69860        2.90043        3.14927
C         -2.42639        2.43887        4.21950
O         -2.91776        3.13438        5.08787
N         -2.53443        1.09697        4.11490
C         -2.01401        0.67147        2.93602
O         -2.15805       -0.45740        2.49273
H          0.74115        0.87792       -0.47318
H          1.12664       -0.78070       -0.94265
H          2.33462        0.18997       -0.08491
H         -0.33470       -0.79340        1.02582
H          1.22458       -1.50490        1.38428
H          0.61079       -0.11884        3.26286
H          2.01636        0.54169        2.46142
H          0.66423        2.34491        3.11017
H          0.63799        2.29625        1.37894
H         -1.67152        2.02030        1.27472
H         -1.52787        3.88999        3.02461
H         -3.11430        0.53334        4.71160
