8

C          1.05614        0.06272        0.04919
C          0.55470       -1.31533        0.38467
F          0.98799       -1.70328        1.60251
F         -0.79444       -1.34917        0.39291
F          0.98799       -2.21966       -0.51856
H          0.70173        0.79082        0.78460
H          0.70173        0.37131       -0.93860
H          2.14981        0.08361        0.04410
