34

C          0.86837        0.00800        0.00611
C          0.58164       -1.41360       -0.45056
O          0.99553       -2.35377        0.55014
C          2.33319       -2.55069        0.66519
O          3.18105       -2.19086       -0.14121
C          2.67712       -3.27105        1.89985
S          2.36256       -2.28064        3.37522
O          3.31281       -1.18453        3.34130
O          0.93613       -2.00766        3.38730
C          2.70046       -3.17611        4.87666
C          4.02044       -3.34545        5.30132
C          4.28190       -3.87452        6.56760
C          3.23064       -4.19258        7.43631
C          3.50423       -4.65656        8.83759
C          1.91013       -4.00312        7.00993
C          1.64262       -3.50158        5.73381
C          2.52059       -4.76620        2.01795
C          3.89698       -4.16761        1.92991
H          0.46382        0.18213        1.00886
H          0.43247        0.73471       -0.68476
H          1.94578        0.19359        0.06405
H         -0.49879       -1.54096       -0.57460
H          1.05160       -1.63607       -1.41462
H          4.85353       -3.02460        4.68088
H          5.31467       -3.99402        6.88913
H          3.18952       -3.88865        9.55242
H          2.96310       -5.58473        9.04555
H          4.57066       -4.84746        8.99602
H          1.08223       -4.20618        7.68731
H          0.60919       -3.31158        5.44944
H          2.21526       -5.20991        2.95680
H          2.16237       -5.31140        1.14939
H          4.45208       -4.28924        1.00262
H          4.53720       -4.21847        2.79674
