29

C          0.86201       -0.18594        0.29482
C          0.59742       -0.64841       -1.12706
C          0.62074       -2.15984       -1.29224
C         -0.37078       -2.43333       -2.43028
C         -1.11134       -3.76059       -2.16206
C          0.34139       -2.41190       -3.80020
C          0.57739       -3.58937       -4.53554
C          1.25561       -3.56586       -5.75992
C          1.73014       -2.36691       -6.27575
C          1.50671       -1.18682       -5.57733
C          0.81055       -1.21007       -4.36443
C         -1.36209       -1.26675       -2.25034
O         -0.69830       -0.20170       -1.54643
H          0.14349       -0.62480        0.99516
H          0.74790        0.90102        0.36934
H          1.87357       -0.45496        0.61329
H          1.33735       -0.17587       -1.78067
H          1.63275       -2.53464       -1.48082
H          0.27267       -2.63198       -0.36412
H         -1.84137       -3.97871       -2.94972
H         -0.41542       -4.60421       -2.08808
H         -1.65755       -3.72962       -1.21138
H          0.24004       -4.55882       -4.18076
H          1.41543       -4.49219       -6.30670
H          2.26830       -2.35042       -7.21917
H          1.87181       -0.24286       -5.97291
H          0.64397       -0.25537       -3.87067
H         -2.22152       -1.54963       -1.63152
H         -1.75997       -0.87820       -3.19375
