18

N          1.06401       -0.12632       -0.07627
C          0.37201       -0.06975       -1.25221
O         -0.80448        0.26762       -1.27656
C          1.12212       -0.37980       -2.50178
C          0.65503        0.24622       -3.67023
C          1.32776        0.07247       -4.87525
Cl         0.75580        0.85663       -6.29519
C          2.47086       -0.71416       -4.93669
C          2.92659       -1.35152       -3.78159
Cl         4.35174       -2.32932       -3.90671
C          2.23719       -1.24529       -2.55307
N          2.77531       -1.84996       -1.38796
H          0.60368        0.22279        0.75406
H          2.07627       -0.20763       -0.07575
H         -0.22471        0.88699       -3.62826
H          3.00490       -0.83154       -5.87588
H          3.41465       -2.61258       -1.61760
H          2.04553       -2.16016       -0.74434
