20

C          0.87474        0.00353        0.05628
C          0.43203        1.41872        0.39606
C          0.95961        2.48027       -0.58217
C          0.39383        2.31683       -1.99154
N          0.60323        3.81274       -0.07660
C          1.44934        4.82169        0.28099
N          0.78776        5.91336        0.75099
S          3.10775        4.83732        0.22763
H          0.44888       -0.33459       -0.89267
H          0.54021       -0.69027        0.83438
H          1.96534       -0.06187       -0.00867
H         -0.66387        1.45525        0.43749
H          0.78555        1.65678        1.40759
H          2.04824        2.38902       -0.64143
H         -0.70102        2.35544       -1.98676
H          0.74818        3.12220       -2.64474
H          0.70244        1.36824       -2.44063
H         -0.37779        3.96728        0.10571
H          1.35075        6.73280        0.94946
H         -0.17624        6.08196        0.50471
