45

C          0.84477        0.96039       -0.72080
C          0.89920       -0.53405       -0.97257
S          1.16808       -1.60587        0.42417
O          0.51776       -1.03340        1.59113
O          0.71757       -2.89507       -0.05690
C          2.98583       -1.63090        0.87935
C          3.46522       -0.29626        0.73175
C          4.80139        0.03735        0.69892
C          5.68011       -0.98127        0.84456
N          5.30083       -2.23539        1.17797
C          3.95714       -2.73658        1.38465
S          3.58438       -5.09140        2.32824
O          4.31054       -6.19179        1.65280
O          3.67397       -5.21321        3.79279
N          1.94799       -5.73988        2.07631
C          0.78681       -5.04604        2.39123
O         -0.32651       -5.53308        2.28909
N          1.04588       -3.78839        2.79111
C          2.25159       -3.36345        2.26838
N          3.47205       -3.01144        3.38363
C          5.12030       -3.47167        3.07016
O          5.97233       -3.15001        4.08818
C          7.29832       -2.86424        3.68132
C          5.64168       -4.25776        1.57959
C          4.43308       -4.42812        0.30103
O          4.67457       -4.91392       -0.94817
C          6.01900       -5.33714       -1.12793
N          2.74129       -4.06634        0.67047
H          0.50006        1.21225        0.28594
H          0.16986        1.43897       -1.43804
H          1.82267        1.42335       -0.88484
H         -0.09424       -0.82687       -1.33857
H          1.61417       -0.79566       -1.75721
H          2.77756        0.53713        0.68589
H          5.13475        1.05638        0.54396
H          6.75137       -0.82686        0.75593
H          1.91949       -6.58914        1.52584
H          0.28168       -3.13872        2.90268
H          7.89355       -3.78027        3.65026
H          7.35783       -2.34138        2.72361
H          7.73525       -2.19510        4.42981
H          6.68004       -4.52213        1.42557
H          6.71045       -4.49092       -1.04807
H          6.29171       -6.13075       -0.42316
H          6.11478       -5.74814       -2.13748
