20

C          0.78982       -0.16188       -0.20599
N          0.48052        0.74168       -1.27351
C          0.81963        1.96544       -1.46167
S          1.82244        2.98036       -0.42051
C          2.34414        2.05803        1.01093
N          0.35865        2.60222       -2.61718
C         -0.48272        1.89849       -3.58139
C          0.65253        3.98424       -2.97748
H          0.30846       -1.12403       -0.41434
H          0.38298        0.17212        0.75053
H          1.85878       -0.37360       -0.13896
H          1.49745        1.75072        1.62656
H          2.96960        1.20636        0.73926
H          2.96166        2.71407        1.63299
H         -1.44274        2.41578       -3.68631
H          0.00800        1.87933       -4.56069
H         -0.70221        0.86189       -3.30957
H          0.26741        4.67621       -2.22117
H          1.72984        4.13544       -3.10261
H          0.18207        4.26159       -3.92820
