56

C          1.18931        0.45146       -0.12747
C          0.90400       -0.64981       -1.13699
C          1.30835       -2.03889       -0.63748
C          0.64669       -2.46037        0.67924
C         -0.88616       -2.44072        0.65475
C         -1.51011       -3.37795       -0.38010
C         -1.10674       -4.84026       -0.20737
C         -1.61866       -5.47684        1.09124
C         -3.11467       -5.80785        1.06943
C         -3.52656       -6.82613        0.00609
O         -3.01577       -8.12643        0.33029
C         -1.78506       -8.44994       -0.12597
O         -1.09138       -7.74065       -0.84637
C         -1.36565       -9.84809        0.27389
C         -1.81909      -10.28203        1.68385
C         -3.30878      -10.50725        1.91431
C         -1.74209      -10.82456       -0.85067
C         -1.14732      -10.47622       -2.23112
C          0.37612      -10.31950       -2.28951
C          1.11994      -11.59997       -1.95343
H          0.59909        0.32552        0.78532
H          0.93313        1.42726       -0.54993
H          2.24864        0.46232        0.14694
H         -0.15899       -0.63554       -1.40266
H          1.45368       -0.43598       -2.06092
H          1.08339       -2.77451       -1.41941
H          2.39669       -2.06824       -0.50377
H          1.00687       -3.45992        0.94929
H          0.99214       -1.80888        1.48947
H         -1.25540       -2.69322        1.65454
H         -1.24569       -1.42383        0.46444
H         -2.60128       -3.28644       -0.33688
H         -1.22647       -3.05537       -1.38885
H         -1.46941       -5.38204       -1.08436
H         -0.01696       -4.94290       -0.24586
H         -1.04315       -6.38439        1.30191
H         -1.41567       -4.82288        1.94520
H         -3.37856       -6.20975        2.05584
H         -3.69368       -4.88864        0.93290
H         -4.61833       -6.91750        0.01382
H         -3.25603       -6.53067       -1.01244
H         -0.27050       -9.80830        0.35126
H         -1.30227      -11.21911        1.92766
H         -1.46924       -9.54055        2.41418
H         -3.76000      -11.12545        1.13534
H         -3.45915      -11.01274        2.87437
H         -3.86016       -9.56529        1.97874
H         -1.43452      -11.83858       -0.57188
H         -2.83281      -10.84804       -0.96547
H         -1.45270      -11.25116       -2.94430
H         -1.60298       -9.54813       -2.59842
H          0.65418      -10.00828       -3.30391
H          0.71747       -9.51723       -1.62706
H          0.81889      -12.41046       -2.62405
H          2.19822      -11.44874       -2.06624
H          0.93286      -11.91296       -0.92233
