28

C          0.98929       -0.16178        0.13303
C          0.27773        0.62042        0.95550
C         -1.23022        0.70688        0.94470
C         -1.77108        0.32955        2.32727
C         -1.72054        2.11600        0.55034
C         -1.27884        2.60280       -0.83918
C         -1.82012        1.76164       -1.96478
C         -2.62988        2.16935       -2.96111
C         -3.09724        1.20927       -4.02067
C         -3.11959        3.58281       -3.10246
H          0.51204       -0.79425       -0.60891
H          2.07366       -0.17757        0.18146
H          0.80654        1.24143        1.67655
H         -1.63776       -0.02292        0.23423
H         -1.42230        1.02371        3.10031
H         -2.86638        0.34398        2.33153
H         -1.45134       -0.67936        2.61171
H         -2.81753        2.13958        0.59998
H         -1.36553        2.84337        1.29310
H         -1.59628        3.64621       -0.94430
H         -0.18523        2.61650       -0.90791
H         -1.49183        0.72338       -1.96067
H         -4.19119        1.16397       -4.03371
H         -2.74833        1.53272       -5.00659
H         -2.72634        0.19261       -3.85230
H         -3.72129        3.87421       -2.23581
H         -2.27786        4.27500       -3.20891
H         -3.74799        3.69856       -3.99204
