31

C          1.29996        0.13679        0.01850
N          0.84295        1.42129        0.51250
C         -0.02925        1.43525        1.60230
O         -0.38035        0.43122        2.21738
C         -0.49693        2.73908        1.92487
C         -0.04168        3.86039        1.29684
N         -0.62162        4.99074        1.78371
C         -1.45706        4.55880        2.70541
N         -1.43179        3.18966        2.81524
C         -2.24678        2.41832        3.73359
C         -3.56617        1.93167        3.12891
C         -3.44003        0.71331        2.22292
O         -2.85017       -0.36870        2.92707
N          0.89010        3.80267        0.28866
C          1.36620        5.02514       -0.33313
C          1.34677        2.55977       -0.14862
O          2.15573        2.44881       -1.07432
H          1.04967        0.05772       -1.04493
H          0.84246       -0.70290        0.54780
H          2.38755        0.07883        0.12445
H         -2.10030        5.18405        3.31262
H         -1.63904        1.60378        4.13822
H         -2.47227        3.08282        4.57754
H         -4.22577        1.65982        3.96243
H         -4.05737        2.74153        2.57671
H         -4.43520        0.39152        1.90037
H         -2.86120        0.92559        1.31919
H         -1.88051       -0.31885        2.77431
H          0.51640        5.56300       -0.76498
H          1.84630        5.64794        0.42850
H          2.09151        4.82371       -1.12574
