28

O          3.34299       -0.68990       -0.08771
C          2.08287       -0.15226       -0.06537
C          1.02222       -1.05467       -0.10318
C         -0.30361       -0.59608       -0.05132
C         -1.38511       -1.49127       -0.07557
C         -2.69913       -1.02286       -0.02984
C         -2.94854        0.34448        0.03924
C         -1.88471        1.24786        0.07279
C         -0.55654        0.79376        0.03303
C          0.52380        1.69107        0.07908
C          1.84093        1.22188        0.02454
C          2.95708        2.19365        0.08876
N          2.83165        3.35134        0.68253
C          4.17551        3.97864        0.58073
C          4.98498        3.12412       -0.39541
N          4.18738        1.91319       -0.47315
H          3.97538        0.03496        0.09713
H          1.23761       -2.11873       -0.15932
H         -1.21045       -2.56362       -0.12733
H         -3.52689       -1.72714       -0.04779
H         -3.97170        0.71009        0.07100
H         -2.10046        2.31244        0.13159
H          0.34297        2.76125        0.15753
H          4.64063        3.98976        1.57284
H          4.08959        5.01081        0.22776
H          5.04964        3.60424       -1.37716
H          5.99376        2.91873       -0.02668
H          4.12695        1.51952       -1.41207
