33

C          1.78360        1.88891       -0.13431
C          0.59749        0.95888       -0.14906
C         -0.67949        1.51396        0.02116
C         -1.80463        0.70312        0.03596
C         -1.65673       -0.67623       -0.06645
C         -0.38726       -1.27893       -0.19068
N         -0.38178       -2.70506       -0.28611
C          0.67709       -3.59266        0.03960
C          0.99755       -4.56465       -0.92398
C          2.04569       -5.46414       -0.72251
C          2.77801       -5.42270        0.45981
C          2.43565       -4.50736        1.45514
C          1.36515       -3.61706        1.26655
C          1.05573       -2.71549        2.39437
O          1.87437       -2.21292        3.14492
O         -0.26630       -2.58075        2.60324
C          0.74651       -0.44273       -0.33471
C          2.11706       -0.99069       -0.64758
H          2.51773        1.55105        0.60498
H          2.24789        1.93809       -1.12350
H          1.49273        2.90709        0.14569
H         -0.80287        2.58913        0.13126
H         -2.79355        1.14065        0.13859
H         -2.55296       -1.29223       -0.04162
H         -1.20230       -3.04565        0.22150
H          0.44573       -4.59013       -1.86185
H          2.29696       -6.18450       -1.49703
H          3.60941       -6.10676        0.61060
H          3.00239       -4.48983        2.38426
H         -0.31329       -1.93762        3.34133
H          2.64020       -1.26432        0.27242
H          2.06283       -1.84632       -1.32474
H          2.73510       -0.26295       -1.18139
