54

C          1.05666       -0.00247        0.08236
C         -0.24719       -0.00247        0.08236
C         -1.76719       -0.00247        0.08236
O         -2.20792       -0.10646        1.42169
C         -2.25249        1.28782       -0.59786
C         -2.28226        0.98788       -2.10624
C         -2.07860       -0.53722       -2.27850
C         -0.68696       -0.83700       -2.88492
C         -0.59046       -0.33529       -4.72995
C          0.41948       -1.29896       -5.95991
C          0.93736       -2.67680       -5.60633
C          2.37536       -2.73996       -5.59102
C          2.66486       -2.07948       -4.47044
O          3.89505       -1.76757       -3.96978
C          4.55828       -2.89139       -3.38160
C          4.20919       -3.00577       -1.90649
C          1.38714       -1.51644       -3.78376
C         -0.32925       -2.43362       -4.29617
C          0.42307       -3.52873       -3.99750
C         -0.17510       -2.64325       -2.48060
C         -1.34104       -3.35227       -1.76211
C         -1.74322       -2.53300       -0.53844
C         -2.33819       -1.12735       -0.85038
C         -3.87949       -1.26665       -0.67287
H          2.12213       -0.00429        0.08536
H         -3.13975        0.16072        1.45726
H         -3.25548        1.56594       -0.25235
H         -1.61010        2.14883       -0.37859
H         -1.51854        1.57098       -2.63208
H         -3.25134        1.29126       -2.51959
H         -2.83018       -0.91718       -2.98197
H          0.05467       -0.19072       -2.40465
H         -0.20247        0.69172       -4.74425
H         -1.61724       -0.33009       -5.12069
H          0.95041       -0.65610       -6.66159
H          3.03155       -3.18904       -6.31313
H          4.34453       -3.82705       -3.91281
H          5.63391       -2.70758       -3.47573
H          3.15282       -3.25707       -1.77155
H          4.80974       -3.78227       -1.42459
H          4.38105       -2.05444       -1.39199
H          1.65983       -1.57973       -2.72474
H          1.42826       -0.43408       -3.98202
H         -0.90290       -2.64396       -5.26779
H         -1.36924       -2.34548       -3.88976
H         -0.14304       -4.44311       -4.20101
H          0.63220       -2.64028       -1.73200
H         -1.00679       -4.34709       -1.44475
H         -2.20769       -3.50698       -2.41344
H         -0.87193       -2.45692        0.12175
H         -2.46121       -3.12674        0.04259
H         -4.41700       -0.33602       -0.87854
H         -4.27643       -2.02386       -1.35958
H         -4.14024       -1.57743        0.34487
