34

C          0.78226        0.43838        0.00213
C          0.32091       -0.55327        1.05521
O          0.88500       -0.31881        2.34830
P          2.61500       -0.31881        2.34830
S          2.44351        1.29883        3.61829
O          2.60821       -1.71737        3.30781
C          1.51156       -2.31596        3.87941
C          0.62250       -3.04908        3.09535
C         -0.55389       -3.55682        3.64987
C         -0.79333       -3.42678        5.01965
C         -2.01384       -3.93797        5.57660
N         -3.00894       -4.35702        5.99838
C          0.16229       -2.80108        5.82912
C          1.31296       -2.23718        5.25670
C          4.44500       -0.31881        2.34830
C          5.15692       -1.53680        2.44245
C          6.55302       -1.57432        2.51336
C          7.28327       -0.39408        2.46510
C          6.62057        0.81597        2.29606
C          5.22400        0.84886        2.20491
H          0.50980        1.46023        0.27698
H          0.33126        0.19632       -0.96572
H          1.86939        0.41117       -0.12427
H         -0.76770       -0.51722        1.15519
H          0.59316       -1.55741        0.72153
H          0.81234       -3.19437        2.03941
H         -1.28324       -4.04243        3.00438
H          0.00788       -2.72933        6.90462
H          2.03362       -1.72476        5.88932
H          4.63015       -2.48798        2.49382
H          7.06535       -2.52657        2.62803
H          8.36578       -0.41658        2.55860
H          7.18680        1.74373        2.25707
H          4.75312        1.82213        2.07551
