25

C          1.02716        0.01645        0.01928
C          0.46686        0.16212       -1.39955
C          1.00222       -0.97721       -2.27399
C         -1.06476        0.14878       -1.34213
O          0.93766        1.42892       -1.88595
O          0.41562        1.59198       -3.24093
C          0.85480        2.78955       -3.71383
O          1.55910        3.60585       -3.13796
C          0.36261        3.02356       -5.08833
C         -0.41142        2.16118       -5.76319
C         -0.89151        2.40788       -7.12617
O         -1.59438        1.63600       -7.75253
O         -0.48735        3.57638       -7.64160
H          0.72056       -0.92822        0.48068
H          0.68919        0.84000        0.65884
H          2.12243        0.05924        0.01269
H          0.72567       -1.95662       -1.86986
H          0.61448       -0.91518       -3.29677
H          2.09422       -0.92690       -2.35131
H         -1.43870        0.99767       -0.75856
H         -1.50526        0.23956       -2.34111
H         -1.44103       -0.77631       -0.89304
H          0.68412        3.96770       -5.51599
H         -0.73902        1.21515       -5.34674
H         -0.88378        3.59066       -8.53821
