19

O          1.09805        0.35351       -0.27110
C          2.31846        0.30343       -0.22697
O          3.03737        1.15852        0.54187
C          3.18038       -0.70151       -0.98726
O          2.58700       -1.97730       -1.20354
C          2.80999       -2.86901       -0.18918
C          2.50311       -2.60393        1.14550
C          2.73018       -3.57897        2.11997
C          3.24454       -4.82755        1.76057
Cl         3.49542       -5.98428        3.01825
C          3.52468       -5.10172        0.41724
Cl         4.14903       -6.62615       -0.10414
C          3.29897       -4.12291       -0.55609
H          4.00241        1.01329        0.53723
H          3.35969       -0.26091       -1.97514
H          4.16202       -0.81087       -0.50941
H          2.04858       -1.66628        1.45154
H          2.48396       -3.36296        3.15743
H          3.50371       -4.33356       -1.60291
