30

N          1.05070        0.02394       -0.27983
C          0.27719       -0.50247       -1.27685
C         -0.84430        0.28457       -1.82234
C         -1.53970       -0.29558       -2.79849
N         -1.23163       -1.56479       -3.23939
C         -2.07726       -2.19465       -4.24499
O         -1.28956       -2.65946       -5.35298
C         -2.12651       -3.59681       -6.05299
C         -1.30117       -4.49443       -6.97079
O         -2.11710       -5.49526       -7.57157
C         -2.93403       -4.34068       -4.98309
O         -2.36639       -5.61819       -4.67855
C         -2.96077       -3.38134       -3.78710
O         -2.57107       -4.03801       -2.57982
C         -0.19237       -2.29405       -2.65730
O         -0.01682       -3.47917       -2.94843
N          0.57338       -1.69503       -1.68669
H          0.58242        0.60928        0.40089
H          1.64240       -0.68127        0.15078
H         -1.05225        1.27447       -1.44394
H         -2.37627        0.21665       -3.26331
H         -2.73782       -1.42929       -4.67613
H         -2.82443       -3.00816       -6.66374
H         -0.84402       -3.89786       -7.76686
H         -0.47772       -4.97763       -6.43288
H         -2.34829       -6.11504       -6.84899
H         -3.94655       -4.53483       -5.35263
H         -1.69298       -5.48618       -3.98519
H         -3.97619       -3.00678       -3.61648
H         -1.59399       -4.11873       -2.57561
