52

C          0.01762       -0.16677        0.19562
O          1.04900        0.29511       -0.67222
C          1.25918        1.64892       -0.63318
C          0.18285        2.54579       -0.65175
C          0.40734        3.92205       -0.70050
C          1.71117        4.42500       -0.76028
C          1.95444        5.90544       -0.93323
C          2.14655        6.31712       -2.40584
N          0.98420        5.91892       -3.18245
C          0.49457        6.85906       -4.17233
C          0.87747        6.62296       -5.64589
O          0.69974        5.23205       -5.95898
C         -0.02481        7.44743       -6.59573
O          0.42883        8.78388       -6.81817
C          0.00949        9.81123       -6.02512
C          0.48839       11.06629       -6.40030
C          0.23100       12.19447       -5.61942
C         -0.46697       12.06258       -4.41949
C         -0.94870       10.81358       -4.02615
C         -1.63623       10.64121       -2.70231
C         -0.77944        9.71189       -4.87958
C          2.78296        3.52786       -0.75290
C          2.57123        2.14487       -0.68252
O          3.73849        1.42712       -0.70698
C          3.70854        0.12685       -0.13655
H         -0.96128       -0.07030       -0.28355
H          0.03324        0.34985        1.16194
H          0.19602       -1.22985        0.38320
H         -0.84328        2.19170       -0.67339
H         -0.44303        4.60049       -0.74453
H          1.11424        6.46585       -0.50016
H          2.83676        6.19918       -0.35110
H          2.29976        7.40270       -2.42740
H          3.04818        5.85723       -2.82572
H          1.00740        4.94908       -3.48597
H         -0.59511        6.76787       -4.09939
H          0.75409        7.87818       -3.87729
H          1.93172        6.87402       -5.80960
H          1.40731        4.75312       -5.49397
H          0.00734        6.96710       -7.58243
H         -1.08406        7.40692       -6.31374
H          1.07472       11.16814       -7.31145
H          0.59988       13.16666       -5.93095
H         -0.62105       12.93671       -3.79122
H         -1.17994       11.29115       -1.94713
H         -2.69998       10.87568       -2.78604
H         -1.52514        9.61321       -2.33807
H         -1.23932        8.77819       -4.58972
H          3.80285        3.90158       -0.81372
H          3.16036        0.10484        0.81154
H          3.31173       -0.59897       -0.85216
H          4.74183       -0.16117        0.07946
