66

C          1.85702       -0.15420       -0.17657
C          1.75834       -1.48967       -0.89966
C          1.51547       -2.70053        0.00131
C          0.54883       -2.54784        1.17403
S         -1.18698       -2.73378        0.79405
O         -1.32452       -3.62589       -0.33329
O         -1.85898       -3.03333        2.04101
N         -1.73834       -1.22264        0.39354
C         -1.64727       -0.60511       -0.95121
C         -2.30601       -1.38728       -2.09133
C         -3.79984       -1.51576       -1.93570
C         -4.65658       -0.62348       -2.59335
C         -6.03506       -0.73048       -2.43017
C         -6.56017       -1.72870       -1.61423
O         -7.91649       -1.86875       -1.61503
C         -8.36927       -3.22468       -1.75729
C         -8.05650       -3.83939       -3.13289
C         -6.74068       -4.63452       -3.27644
C         -6.45071       -5.71818       -2.21770
C         -7.58667       -6.74061       -2.02690
C         -7.54137       -7.40792       -0.63821
C         -6.68071       -8.66357       -0.56079
N         -7.02861       -9.59723       -1.62799
C         -6.74452       -8.99498       -2.92766
C         -7.63202       -7.77466       -3.16490
C         -5.71466       -2.54703       -0.87672
C         -4.34343       -2.47785       -1.07967
C         -2.22466        0.80651       -0.93623
O         -2.02621        1.66540       -1.78306
O         -3.07302        1.04472        0.08845
H          0.97346        0.06078        0.43080
H          1.94915        0.66009       -0.90250
H          2.73313       -0.13065        0.47742
H          0.99165       -1.45600       -1.67762
H          2.69346       -1.65048       -1.45042
H          1.21450       -3.54396       -0.63291
H          2.48877       -2.98290        0.42101
H          0.74763       -3.38655        1.85559
H          0.68996       -1.64230        1.76657
H         -2.58989       -0.95720        0.90427
H         -0.59909       -0.45382       -1.17253
H         -2.09613       -0.87636       -3.04155
H         -1.86311       -2.37849       -2.22177
H         -4.25835        0.15150       -3.24522
H         -6.70080       -0.06013       -2.96551
H         -8.06513       -3.84997       -0.91236
H         -9.46068       -3.15343       -1.67666
H         -8.88015       -4.51227       -3.39783
H         -8.05776       -3.04646       -3.89148
H         -6.74505       -5.10273       -4.26831
H         -5.89481       -3.93930       -3.30285
H         -5.52059       -6.23336       -2.49014
H         -6.24035       -5.22889       -1.26393
H         -8.53104       -6.18728       -2.05002
H         -7.21006       -6.69320        0.12538
H         -8.56919       -7.68059       -0.36382
H         -5.61436       -8.41250       -0.59923
H         -6.85748       -9.15206        0.40453
H         -6.48452      -10.45232       -1.52135
H         -6.94343       -9.73529       -3.71052
H         -5.68275       -8.73129       -3.00361
H         -8.66901       -8.11549       -3.27713
H         -7.35898       -7.31609       -4.12209
H         -6.10198       -3.27836       -0.17636
H         -3.71507       -3.19865       -0.56668
H         -3.44306        1.93156       -0.10951
