26

O          2.27039       -1.00858       -0.04812
C          1.13171       -0.25891       -0.03134
C          1.18182        1.13076       -0.00525
C         -0.01053        1.86538        0.00954
C         -1.25844        1.21923       -0.00029
N         -2.50977        1.88288        0.01019
N         -2.41461        3.11780        0.16535
C         -3.68143        3.73113        0.20781
C         -3.92957        4.83179       -0.61979
C         -5.15420        5.50301       -0.56768
C         -6.14188        5.08062        0.32046
C         -5.90646        3.99085        1.15654
C         -4.68004        3.32375        1.10391
C         -1.26448       -0.18521       -0.02813
O         -2.44682       -0.88206       -0.04223
C         -0.08566       -0.92705       -0.04238
H          3.03861       -0.41441       -0.04143
H          2.12943        1.66084        0.00363
H          0.04579        2.95038        0.02892
H         -3.15991        5.17039       -1.30865
H         -5.33350        6.35737       -1.21531
H         -7.09341        5.60504        0.36555
H         -6.67222        3.66437        1.85540
H         -4.49679        2.48667        1.77231
H         -3.15867       -0.21479       -0.05245
H         -0.11918       -2.01127       -0.06339
