28

C          1.27636        0.28959        0.04107
C          0.52911        0.58684       -1.26078
C          0.95868       -0.35534       -2.39167
N         -0.95294        0.68683       -1.12930
C         -1.66130        1.90411       -1.20806
O         -2.88956        1.98530       -1.07744
C         -0.89849        3.19213       -1.46404
Cl        -0.08815        3.72984        0.01861
C         -1.71556       -0.53277       -1.02559
C         -2.82667       -0.74286       -1.85744
C         -3.57065       -1.92493       -1.78754
C         -3.22141       -2.91499       -0.87545
C         -2.13126       -2.71973       -0.03386
C         -1.38379       -1.53890       -0.11139
H          1.35329       -0.78306        0.23927
H          0.80332        0.77511        0.89989
H          2.30703        0.65652       -0.02801
H          0.90159        1.56331       -1.57132
H          0.70297       -1.39840       -2.18284
H          0.47406       -0.07161       -3.33256
H          2.04231       -0.30327       -2.54363
H         -0.18660        3.09813       -2.28698
H         -1.61178        3.97209       -1.75021
H         -3.12294        0.00775       -2.58601
H         -4.42658       -2.06404       -2.44255
H         -3.80611       -3.82852       -0.80982
H         -1.87051       -3.47731        0.70093
H         -0.58909       -1.40841        0.61079
