36

C         -0.02664        0.32583       -0.00253
C         -0.37092        1.33653       -1.07247
O         -1.51268        1.41022       -1.52283
N          0.68703        2.10140       -1.54569
C          1.86293        2.46558       -0.76742
N          0.52447        2.80044       -2.79007
C          0.29416        2.11666       -4.00083
O          0.25066        2.63986       -5.11541
C          0.06131        0.60454       -3.93276
O          0.96752       -0.11385       -3.51626
N         -1.17531        0.13359       -4.38370
C         -2.27673        1.00901       -4.75523
C         -1.41808       -1.29262       -4.39735
C          0.78293        4.19116       -2.86023
C         -0.27617        5.09798       -2.79777
C         -0.02661        6.46369       -2.95101
C          1.27649        6.92101       -3.15928
C          2.33359        6.01507       -3.22882
C          2.08586        4.64987       -3.09464
H         -0.70470       -0.52890       -0.08945
H         -0.12978        0.77454        0.98723
H          0.98616       -0.06625       -0.13881
H          2.76306        2.37232       -1.37858
H          1.74364        3.49397       -0.40877
H          1.97497        1.84240        0.12167
H         -2.26221        1.13336       -5.84203
H         -3.22627        0.55556       -4.45473
H         -2.19812        1.98820       -4.27806
H         -0.50701       -1.83168       -4.67143
H         -1.72675       -1.60068       -3.39398
H         -2.20655       -1.53467       -5.11613
H         -1.29445        4.74469       -2.65808
H         -0.85067        7.17208       -2.92539
H          1.46602        7.98403       -3.28671
H          3.34546        6.36854       -3.40941
H          2.90813        3.94657       -3.19415
