68

C          1.56495        0.25986        0.14712
C          0.90868       -0.53172        1.27959
C          1.30103        0.06259        2.63228
C         -0.62437       -0.55642        1.14843
C         -1.14425       -1.21556       -0.13133
C         -0.81742       -2.70705       -0.25016
C         -1.54700       -3.59359        0.76832
C         -3.06510       -3.60758        0.59609
O         -3.35001       -4.17552       -0.68609
C         -3.69694       -3.34569       -1.69770
O         -4.00467       -2.16779       -1.57865
C         -3.64116       -4.05349       -3.03043
C         -2.99113       -5.44240       -3.02065
C         -3.70382       -6.55196       -2.21925
C         -5.21986       -6.41980       -2.02981
C         -6.04857       -6.50650       -3.28918
O         -7.26715       -6.61257       -3.28162
O         -5.26782       -6.46855       -4.39433
C         -5.84642       -6.83025       -5.65214
C         -5.37254       -8.24307       -5.98960
C         -5.84677       -9.30892       -4.99229
C         -7.36534       -9.50452       -4.95806
C         -7.95074      -10.11765       -6.23238
C         -7.47735      -11.55132       -6.52997
C         -7.87451      -12.52486       -5.41899
C         -8.05262      -12.01717       -7.86749
H          1.15149        1.27198        0.08067
H          1.41752       -0.23147       -0.81973
H          2.64514        0.34330        0.30338
H          1.29677       -1.55610        1.25350
H          0.93531        1.08920        2.73734
H          0.88386       -0.53371        3.45090
H          2.38953        0.07331        2.74978
H         -1.05934       -1.06142        2.01922
H         -1.00538        0.47267        1.17943
H         -2.22604       -1.05999       -0.17257
H         -0.74796       -0.69536       -1.00995
H         -1.05808       -3.03840       -1.26690
H          0.26091       -2.86822       -0.15055
H         -1.17648       -4.61799        0.62935
H         -1.29188       -3.30069        1.79092
H         -3.51036       -4.27269        1.34363
H         -3.51897       -2.62185        0.73301
H         -4.65551       -4.09173       -3.43608
H         -3.04469       -3.41742       -3.69623
H         -2.89319       -5.77414       -4.06226
H         -1.95978       -5.36242       -2.65198
H         -3.47570       -7.51638       -2.69239
H         -3.24537       -6.61094       -1.22379
H         -5.54296       -7.24784       -1.38669
H         -5.47730       -5.48848       -1.51867
H         -6.93579       -6.73228       -5.66105
H         -5.45476       -6.12750       -6.39524
H         -5.67483       -8.50284       -7.00829
H         -4.27451       -8.24992       -5.97244
H         -5.34745      -10.25563       -5.22276
H         -5.50430       -9.04906       -3.98400
H         -7.62314      -10.12197       -4.09093
H         -7.86703       -8.54813       -4.78547
H         -9.04470      -10.11097       -6.14104
H         -7.71919       -9.46979       -7.08630
H         -6.38598      -11.56586       -6.62660
H         -8.95263      -12.48955       -5.22882
H         -7.60986      -13.55268       -5.68680
H         -7.35670      -12.29363       -4.48286
H         -7.72390      -11.35877       -8.67877
H         -7.71282      -13.03089       -8.10346
H         -9.14736      -12.01821       -7.85141
