24

C          1.24431       -0.18253       -0.01254
C          0.57411       -0.30529       -1.35626
O         -0.05068       -1.32054       -1.66766
C          0.73416        0.82836       -2.32879
C          0.23145        2.15330       -1.81009
O          1.05291        2.97117       -1.38274
C         -1.28766        2.43300       -1.75316
C         -1.95412        2.14404       -3.10362
C         -1.94070        1.58814       -0.65264
C         -1.50704        3.92069       -1.41488
H          0.93394       -1.01500        0.62557
H          0.94765        0.74757        0.47717
H          2.32858       -0.21159       -0.13945
H          1.80183        0.92314       -2.56040
H          0.24441        0.58341       -3.27455
H         -1.92759        1.07769       -3.35134
H         -3.00795        2.44541       -3.09679
H         -1.45356        2.68456       -3.91483
H         -1.40638        1.69412        0.29809
H         -2.98173        1.88754       -0.48714
H         -1.95210        0.52473       -0.90966
H         -1.06071        4.17977       -0.44747
H         -1.05185        4.57034       -2.17136
H         -2.57406        4.16483       -1.36154
