17

C          0.90713       -0.07434       -0.00912
O          0.62187        1.25877        0.37371
P          1.19854        1.65832        1.95508
O          2.56997        1.95880        1.33383
O          0.27763        3.02608        1.98094
C         -0.01406        3.73532        0.79327
O          1.77521        2.05787        3.53644
C          2.75718        3.07178        3.67365
H          0.36184       -0.29833       -0.92929
H          0.58306       -0.76640        0.77290
H          1.97798       -0.19276       -0.19197
H          0.83958        3.75734        0.11254
H         -0.88113        3.28087        0.30365
H         -0.27723        4.76400        1.05634
H          3.74875        2.64738        3.48991
H          2.56991        3.90926        2.99699
H          2.73017        3.44073        4.70214
