20

N          1.15201       -0.09683       -0.06490
N          0.34331       -0.06983       -1.24252
C         -0.47556       -1.19790       -1.52877
N         -0.22953       -1.82390       -2.70480
N         -0.93492       -2.93182       -3.06563
C         -1.89472       -3.39339       -2.24206
C         -2.21821       -2.79007       -1.03364
C         -3.24311       -3.29115       -0.20896
C         -3.57042       -2.65316        0.98643
C         -2.88713       -1.50368        1.36495
C         -1.86893       -0.99998        0.55241
C         -1.49570       -1.64077       -0.65511
H          0.86991       -0.85519        0.56291
H          2.12567       -0.30231       -0.30479
H          0.88653        0.07152       -2.10270
H         -2.41161       -4.27710       -2.60176
H         -3.80095       -4.18002       -0.49838
H         -4.36662       -3.04494        1.61450
H         -3.14900       -0.99004        2.28670
H         -1.37098       -0.08028        0.85745
