50

O          1.98116        0.78223       -0.84154
C          0.97122        0.35627       -0.27926
C          0.06598        1.34557        0.43086
C         -1.22135        1.58716       -0.34519
C         -2.29087        0.52927       -0.09561
C         -1.87417       -0.88727       -0.48429
C         -0.67958       -1.39765        0.32034
N          0.61311       -0.98845       -0.22660
C          1.21656       -1.93121       -1.07545
O          0.55410       -2.74111       -1.72690
C          2.70666       -1.99776       -1.17228
C          3.27849       -2.59970       -2.30135
C          4.66398       -2.72711       -2.40767
C          5.48675       -2.25934       -1.38200
C          4.92964       -1.67715       -0.23516
C          5.85106       -1.09843        0.79251
O          7.01189       -0.84289        0.47135
N          5.34655       -0.79311        2.06242
C          5.89488        0.41823        2.66634
C          7.08757        0.16945        3.58684
C          6.67193       -0.22283        5.00191
C          5.89575       -1.53279        5.08105
C          4.58042       -1.50756        4.31417
C          4.77689       -1.79450        2.83768
O          4.38833       -2.87482        2.38667
C          3.53714       -1.55379       -0.13482
H         -0.11464        1.03592        1.46495
H          0.61939        2.29152        0.49536
H         -1.63207        2.55864       -0.04394
H         -1.01210        1.65151       -1.42002
H         -2.58013        0.54695        0.96276
H         -3.18858        0.79887       -0.66512
H         -2.72885       -1.54634       -0.28804
H         -1.67269       -0.93903       -1.56068
H         -0.74038       -1.07176        1.36473
H         -0.71700       -2.49415        0.34763
H          2.64397       -2.97117       -3.10401
H          5.10229       -3.18419       -3.29143
H          6.56731       -2.34303       -1.48359
H          5.09039        0.93876        3.19812
H          6.20978        1.09266        1.85954
H          7.66522        1.09924        3.65970
H          7.75727       -0.58957        3.16631
H          6.07369        0.58363        5.44464
H          7.57393       -0.31223        5.61933
H          5.67775       -1.73012        6.13784
H          6.52787       -2.35692        4.72854
H          4.02810       -0.57298        4.45474
H          3.93254       -2.30161        4.70785
H          3.09763       -1.09997        0.74559
