86

C          1.29753       -0.11355        0.15940
C          1.14253        1.37297        0.24688
O          1.07452        2.10350       -0.73643
O          1.08987        1.75409        1.58601
C          0.64938        3.07579        1.74470
C         -0.68502        3.36747        1.45421
C         -1.67421        2.27385        1.13129
C         -1.05683        4.72145        1.37588
C         -2.26440        5.02343        0.54093
C         -0.23555        5.72663        1.93958
C          1.08979        5.40363        2.29267
C          1.54973        4.06628        2.16885
C          2.98193        3.72018        2.47192
C          2.02743        6.48002        2.78259
C          1.43984        7.86943        2.59923
C         -0.03119        7.87670        3.02075
C         -0.20490        7.42023        4.49555
C         -0.58581        9.34276        3.00535
C         -0.54582       10.17770        1.71624
C         -1.66775        9.89204        0.71393
C         -3.08991       10.26954        1.20421
C         -3.34146       11.77776        1.12183
C         -4.20594        9.52951        0.43115
C         -4.12924        8.00367        0.49439
C         -4.10281        7.42262        1.91284
C         -5.44951        7.05337        2.54912
C         -6.26326        6.08816        1.67720
C         -5.23313        6.37485        3.92693
C         -4.31306        7.10716        4.91005
C         -4.63029        8.58811        5.13335
C         -6.06136        8.86672        5.61505
C         -6.28121        8.34923        7.03470
C         -6.34939       10.36588        5.53658
O         -0.76755        6.99805        2.12730
H          0.87481       -0.45890       -0.78948
H          0.73561       -0.60001        0.96177
H          2.35425       -0.37758        0.21491
H         -1.70725        2.08157        0.05539
H         -1.42425        1.34516        1.65513
H         -2.67956        2.54057        1.47680
H         -2.25767        4.42094       -0.37567
H         -3.18921        4.79489        1.07335
H         -2.22327        6.04809        0.18816
H          3.64676        4.24567        1.77896
H          3.22921        3.99908        3.50090
H          3.18799        2.65140        2.36898
H          2.97569        6.43945        2.23641
H          2.24544        6.30472        3.84303
H          1.51809        8.13369        1.53688
H          2.02977        8.60031        3.16427
H          0.47579        7.96949        5.15740
H         -1.22205        7.61492        4.84759
H         -0.03968        6.35034        4.64425
H         -1.60879        9.33678        3.39387
H         -0.00319        9.91302        3.74529
H         -0.59916       11.23729        1.99803
H          0.42286       10.05892        1.22020
H         -1.45628       10.44638       -0.20978
H         -1.59350        8.83622        0.45012
H         -3.19463       10.02351        2.26139
H         -3.24899       12.14473        0.09528
H         -4.35234       12.01285        1.47525
H         -2.64084       12.33050        1.75419
H         -5.18600        9.84062        0.81112
H         -4.16762        9.82792       -0.62470
H         -4.93009        7.57073       -0.10897
H         -3.21964        7.71440       -0.03227
H         -3.50141        6.52348        1.93072
H         -3.54543        8.08651        2.56888
H         -6.03513        7.96937        2.68191
H         -5.70118        5.16992        1.47175
H         -7.19386        5.80577        2.18052
H         -6.54412        6.53552        0.72082
H         -6.20798        6.20978        4.40128
H         -4.80856        5.37285        3.77085
H         -4.32618        6.57461        5.86815
H         -3.28254        7.01996        4.55211
H         -3.90916        8.99126        5.85645
H         -4.45307        9.14326        4.20661
H         -6.77919        8.36914        4.95390
H         -5.57155        8.80218        7.73513
H         -7.29415        8.58019        7.37860
H         -6.15894        7.26268        7.08350
H         -6.24437       10.72380        4.50593
H         -7.37312       10.58106        5.85860
H         -5.66147       10.93893        6.16635
