28

O          0.99835        0.89267        0.95290
C          2.09487        0.57390        0.50990
O          2.69007       -0.58494        0.86676
C          2.89232        1.43874       -0.43736
S          2.32702        1.38796       -2.16672
C          2.96628       -0.21686       -2.84401
C          4.50699       -0.22685       -2.93468
C          5.21142       -0.42750       -1.62358
O          4.78013       -0.98829       -0.63057
O          6.43120        0.14183       -1.60603
C          2.27980       -1.49322       -2.35985
C          1.04106       -1.48652       -1.69607
C          0.45614       -2.66588       -1.22521
C          1.06014       -3.89197       -1.46999
C          2.23708       -3.93866       -2.20645
C          2.83512       -2.75474       -2.65131
H          3.49990       -0.82605        0.35543
H          2.73804        2.46964       -0.09495
H          3.96486        1.29087       -0.32407
H          2.63670       -0.14896       -3.89140
H          4.85610       -1.01646       -3.60951
H          4.84810        0.72088       -3.37112
H          6.79000       -0.01769       -0.70699
H          0.50150       -0.56189       -1.50105
H         -0.47172       -2.61572       -0.66014
H          0.60624       -4.80640       -1.09896
H          2.69448       -4.89809       -2.43400
H          3.74430       -2.85078       -3.23857
