21

C          1.46011       -0.14147        0.16412
C          0.89167        1.11674       -0.01809
C         -0.49480        1.24444       -0.11355
C         -1.32318        0.12224       -0.02969
O         -2.65383        0.38743       -0.18949
C         -3.57588       -0.70560       -0.26488
C         -3.43231       -1.46266       -1.54890
C         -3.33032       -2.96915       -1.56235
O         -4.55648       -2.29933       -1.86936
C         -0.74971       -1.13101        0.18515
C          0.63992       -1.26246        0.27069
H          2.53988       -0.24730        0.22636
H          1.52426        1.99677       -0.09246
H         -0.93447        2.22787       -0.26429
H         -3.50149       -1.34072        0.62576
H         -4.57531       -0.25614       -0.24036
H         -3.00299       -0.88532       -2.35626
H         -2.78995       -3.43559       -2.37660
H         -3.28387       -3.50823       -0.62441
H         -1.34917       -2.02686        0.28755
H          1.08239       -2.24463        0.41906
