26

C          3.66748        0.70324        0.01989
C          3.66688       -0.70540        0.02532
C          2.46888       -1.42711        0.01859
C          1.28603       -0.71221        0.00890
C          1.28664        0.71195        0.00619
C          2.47009        1.42591        0.00955
C         -0.10604        1.13969        0.00816
C         -0.71264        2.38253        0.01317
C         -2.11823        2.44227        0.02372
C         -2.90533        1.26944        0.02787
C         -2.29160        0.00139        0.02086
C         -2.90644       -1.26613        0.02462
C         -2.12036       -2.43963        0.01856
C         -0.71470       -2.38109        0.01096
C         -0.10701       -1.13877        0.00910
C         -0.89901        0.00080        0.01163
H          4.61583        1.23628        0.02609
H          4.61476       -1.23918        0.03668
H          2.47490       -2.51107        0.02464
H          2.47703        2.50987        0.00748
H         -0.12512        3.29430        0.01144
H         -2.61067        3.41257        0.03038
H         -3.98903        1.35172        0.03801
H         -3.99022       -1.34748        0.03300
H         -2.61366       -3.40951        0.02124
H         -0.12797       -3.29337        0.00770
