29

C          0.88205        0.06321        0.19062
C          0.32482        1.42425       -0.21760
C          0.83993        1.86129       -1.58697
N         -1.15469        1.43587       -0.20787
N         -1.66283        0.53079       -0.90204
C         -3.03162        0.63431       -1.03143
O         -3.77175        1.34490       -0.35163
N         -3.60527       -0.06374       -2.07809
C         -3.01692       -0.98257       -2.96260
C         -3.61320       -1.14357       -4.21922
C         -3.04729       -1.99889       -5.17180
C         -1.89464       -2.72527       -4.85005
N         -1.27746       -3.60275       -5.85178
O         -1.77630       -3.62129       -6.98577
O         -0.29080       -4.26780       -5.50549
C         -1.32416       -2.61729       -3.57838
C         -1.89093       -1.74882       -2.64024
H          0.64456       -0.71186       -0.54612
H          0.46802       -0.25367        1.15339
H          1.97219        0.10581        0.28450
H          0.65440        2.16231        0.52275
H          0.54589        1.15690       -2.37315
H          0.43560        2.84296       -1.85647
H          1.93251        1.93069       -1.58827
H         -4.54151        0.26648       -2.27224
H         -4.49932       -0.57317       -4.49051
H         -3.50815       -2.07706       -6.15455
H         -0.44522       -3.19516       -3.29875
H         -1.44606       -1.71994       -1.64954
