50

C          0.84612       -0.11082        0.60632
C          0.56381       -0.56017       -0.81767
C          0.87881       -2.04575       -1.07061
C         -0.03317       -3.01955       -0.30369
O         -1.41234       -2.77849       -0.57101
N          0.78945       -2.27820       -2.51235
C          1.65258       -2.76143       -3.43944
O          1.24477       -2.74993       -4.60776
C          3.01442       -3.40533       -3.12532
C          2.83345       -4.91942       -2.94258
C          3.92744       -5.53014       -2.43367
C          4.81364       -6.21162       -3.40053
C          4.47392       -6.67915       -4.67849
C          5.42798       -7.30423       -5.49182
C          6.74419       -7.51068       -5.05447
C          7.06278       -7.05189       -3.77445
N          8.23395       -7.08673       -3.05014
C          8.06780       -6.43942       -1.84646
C          6.76856       -5.98691       -1.79575
C          6.12942       -6.40924       -2.97518
C          6.05949       -5.12612       -0.82050
C          4.50866       -4.99757       -1.08598
N          3.94646       -3.62865       -0.80152
C          4.55365       -2.93259        0.32421
C          3.92210       -2.79370       -2.03142
H          0.21020       -0.63105        1.32743
H          0.65304        0.96277        0.70306
H          1.89317       -0.28838        0.87101
H         -0.47960       -0.33798       -1.07256
H          1.17414        0.05381       -1.49359
H          1.88913       -2.23665       -0.73766
H          0.18496       -4.05170       -0.59731
H          0.12865       -2.94521        0.77696
H         -1.68763       -2.01390       -0.03750
H         -0.10392       -2.04246       -2.93254
H          3.56927       -3.27733       -4.06905
H          1.95396       -5.00532       -2.29079
H          3.46327       -6.54623       -5.05797
H          5.13968       -7.63584       -6.48728
H          7.47754       -7.99339       -5.69082
H          9.09756       -7.49793       -3.37568
H          8.89601       -6.33116       -1.15917
H          6.54519       -4.14616       -0.87463
H          6.21647       -5.50289        0.19848
H          4.04727       -5.65268       -0.33033
H          5.55509       -2.54930        0.10531
H          3.93576       -2.07397        0.60942
H          4.60595       -3.58226        1.20422
H          4.94737       -2.71470       -2.42069
H          3.61312       -1.76448       -1.81785
