20

O          0.91788       -0.48485        0.28347
C          2.08410       -0.22373        0.05796
O          2.74904        0.82956        0.57324
C          2.94059       -1.06363       -0.79826
C          4.08693       -1.64392       -0.22809
C          4.88039       -2.51336       -0.97912
C          4.53682       -2.80144       -2.29970
C          3.38811       -2.21749       -2.85736
N          3.11577       -2.47055       -4.26092
O          3.10584       -3.65260       -4.62679
O          3.01249       -1.48158       -4.99787
C          2.57616       -1.35421       -2.11822
C          1.34340       -0.81241       -2.69892
O          0.48772       -1.46361       -3.26183
O          1.32127        0.52447       -2.60257
H          3.63560        0.98921        0.19675
H          4.34132       -1.45300        0.81421
H          5.75936       -2.97507       -0.53165
H          5.16203       -3.47395       -2.88609
H          0.45786        0.78555       -2.99279
