12

Cl         1.33063        1.64382       -0.05052
C         -0.11948        0.70470       -0.02157
C         -1.33896        1.38972       -0.03494
C         -2.54249        0.68241       -0.01214
C         -2.53114       -0.71097        0.02425
C         -1.31626       -1.39884        0.03740
C         -0.10809       -0.69430        0.01439
Cl         1.35712       -1.60998        0.03182
H         -1.35781        2.47670       -0.06313
H         -3.48851        1.21919       -0.02271
H         -3.46830       -1.26289        0.04234
H         -1.31741       -2.48598        0.06564
