26

Cl         0.92702        0.02843       -0.40603
C          2.67030        0.27502       -0.15496
C          2.97888        0.81990        1.23714
C          2.57713       -0.08624        2.40858
C          3.20301       -1.48534        2.40397
C          4.73394       -1.51748        2.45539
C          5.35982       -0.90055        3.71113
C          4.95807       -1.55678        5.03881
C          5.26664       -3.04690        5.15869
Cl         7.00992       -3.38061        5.04698
H          3.17701       -0.67575       -0.34140
H          3.00715        0.98588       -0.91573
H          4.05206        1.03473        1.29669
H          2.47408        1.78678        1.36135
H          2.83213        0.42461        3.34459
H          1.48645       -0.19680        2.42499
H          2.79740       -2.05016        3.25181
H          2.87353       -2.02729        1.51003
H          5.06341       -2.55849        2.35972
H          5.13954       -1.00268        1.57628
H          6.45049       -0.93423        3.60455
H          5.10482        0.16465        3.76041
H          5.46286       -1.02163        5.85361
H          3.88489       -1.40914        5.20586
H          4.92980       -3.41946        6.13095
H          4.75993       -3.63092        4.38563
