24

N          2.38168       -0.10981       -0.07419
C          0.97891       -0.02636        0.03339
C          0.23763       -1.21580       -0.03454
C         -1.15734       -1.19792       -0.03100
C         -1.83341        0.01530       -0.00206
C         -1.11230        1.20945        0.00026
C          0.29730        1.21315       -0.00791
C          1.00357        2.50588       -0.05681
C          1.78339        2.86006       -1.17160
C          2.43846        4.08965       -1.21538
F          3.17853        4.39925       -2.28884
C          2.33020        4.98569       -0.16271
F          2.96403        6.16580       -0.21089
C          1.56166        4.64945        0.94165
F          1.44761        5.50390        1.96779
C          0.90038        3.42347        1.00254
H          2.76262       -0.98359        0.27593
H          2.86289        0.69408        0.31809
H          0.74827       -2.17427       -0.08587
H         -1.71245       -2.13171       -0.06412
H         -2.92015        0.03505       -0.00578
H         -1.66081        2.14965       -0.01642
H          1.88525        2.17770       -2.01318
H          0.30909        3.19033        1.88486
