23

C          1.16510       -0.01771        0.04959
O          0.54016        0.27096       -1.19086
C          0.78489        1.60747       -1.62159
O          0.22964        2.58508       -0.74518
C         -1.06995        2.87504       -0.97818
O         -1.81570        2.35761       -1.79392
C         -1.52668        3.87585        0.00252
C         -2.66603        3.57300        0.75923
C         -3.15200        4.49540        1.68636
C         -2.50948        5.72324        1.84899
C         -1.38235        6.03566        1.08438
C         -0.89289        5.11280        0.15805
O          0.18561        5.43965       -0.61560
H          0.97007       -1.06568        0.29359
H          0.74920        0.60379        0.84803
H          2.24741        0.12711       -0.01880
H          1.86607        1.78008       -1.67838
H          0.40017        1.72276       -2.64182
H         -3.17289        2.61964        0.62408
H         -4.03454        4.25911        2.27622
H         -2.89462        6.44358        2.56734
H         -0.90891        7.00393        1.21822
H          0.48316        6.33619       -0.38879
