17

C          0.78453        0.08131        0.07742
O          0.25536        1.38961       -0.14784
C          0.91866        2.37297        0.50872
O          1.86191        2.22829        1.26882
C          0.38282        3.68905        0.11721
C         -0.92698        3.88618       -0.32559
C         -1.33832        5.16954       -0.68162
C         -0.42257        6.20678       -0.58532
N          0.84834        6.04873       -0.15471
C          1.22155        4.79239        0.19447
H          0.35231       -0.59182       -0.66817
H          0.49912       -0.26766        1.07385
H          1.87321        0.06518       -0.04137
H         -1.62688        3.05759       -0.38874
H         -2.34935        5.35771       -1.02654
H         -0.69502        7.22270       -0.85847
H          2.24953        4.69884        0.53691
