34

N          1.15991       -0.08491       -0.02443
C          0.42266       -0.81297        0.89988
N          0.88818       -0.89831        2.16634
C          0.17798       -1.61597        3.06262
N         -0.98573       -2.27448        2.87889
C         -1.40696       -2.15481        1.60863
C         -0.78864       -1.45159        0.58602
N         -1.52949       -1.51916       -0.57604
C         -2.55530       -2.28611       -0.27421
N         -2.51968       -2.70282        1.03234
C         -3.46728       -3.61415        1.63433
O         -2.73774       -4.73704        2.19712
C         -3.28347       -4.95535        3.49235
C         -2.31673       -5.52219        4.50766
O         -2.88293       -5.58851        5.80703
P         -4.21253       -4.79745        6.23706
O         -5.30004       -5.64930        6.79242
O         -3.65860       -3.77630        7.33814
O         -4.67525       -3.81648        5.04445
C         -3.74840       -3.61145        4.00257
C         -4.35266       -3.01548        2.74677
O         -5.70370       -3.48382        2.58591
H          0.61807        0.21927       -0.82550
H          1.77422        0.58647        0.41575
H          0.60011       -1.66721        4.06254
H         -3.34045       -2.57841       -0.96139
H         -4.08992       -4.01764        0.82642
H         -4.13515       -5.64371        3.39868
H         -1.39739       -4.92692        4.55119
H         -2.01469       -6.53227        4.21325
H         -3.82765       -4.14087        8.22808
H         -2.92352       -2.98711        4.36077
H         -4.38594       -1.92176        2.75837
H         -6.07755       -3.58141        3.48551
