24

C          0.97208       -0.13870       -0.02538
C          0.47997        0.73694       -1.18126
C         -0.57983        1.74715       -0.71823
C          0.00196        2.90006        0.10286
C          1.16555        3.59290       -0.61935
C          1.77843        4.68044        0.26178
C          2.23626        2.58015       -1.04375
C          1.63887        1.45497       -1.88499
H          0.17145       -0.80593        0.31161
H          1.29764        0.45020        0.83713
H          1.81380       -0.76477       -0.33974
H          0.01241        0.06471       -1.91296
H         -1.07652        2.16551       -1.60286
H         -1.35841        1.23930       -0.13610
H          0.33400        2.52804        1.07898
H         -0.79235        3.62969        0.30470
H          0.77035        4.07497       -1.52293
H          2.58305        5.20103       -0.26858
H          1.02538        5.42450        0.54170
H          2.19747        4.25901        1.18155
H          2.73095        2.15937       -0.16042
H          3.01512        3.08713       -1.62674
H          2.42435        0.73768       -2.15164
H          1.27179        1.87721       -2.82919
