23

C          0.91501        0.17950       -0.08902
N          0.72381       -1.15534        0.41926
C         -0.00871       -1.51997        1.50841
O         -0.02777       -2.68047        1.89865
O         -0.67238       -0.48672        2.08054
C         -1.39737       -0.80821        3.27258
C         -2.79288       -1.27995        2.94534
C         -3.08984       -2.64918        2.92239
C         -4.37348       -3.09324        2.59855
C         -5.37806       -2.17299        2.29139
Cl        -6.94275       -2.79219        1.89966
C         -5.09252       -0.80351        2.30529
Cl        -6.28311        0.39361        1.93548
C         -3.80334       -0.36118        2.62641
H          0.49828        0.93916        0.57511
H          0.44186        0.24457       -1.07162
H          1.99023        0.34425       -0.19879
H          1.19396       -1.92649       -0.03541
H         -0.85686       -1.53385        3.89359
H         -1.45747        0.10750        3.87297
H         -2.31445       -3.38234        3.14429
H         -4.57897       -4.16102        2.58199
H         -3.58315        0.70462        2.62561
