32

C          1.10865        0.04092        0.04839
O          0.37527        1.25776       -0.01214
C          0.91929        2.34139        0.61595
C          0.06458        3.41925        0.77084
C          0.51202        4.57160        1.41406
C          1.82434        4.70105        1.91197
O          1.95000        5.90855        2.52770
C          3.17846        6.53643        2.82912
C          2.71338        3.62462        1.74630
C          4.16169        3.53409        2.20299
O          4.96051        4.51785        1.54363
C          4.37948        3.49104        3.75035
C          3.87588        2.17019        4.34132
N          5.79250        3.68026        4.12693
C          2.22688        2.45380        1.08798
H          0.49568       -0.74173       -0.40938
H          1.30462       -0.25276        1.08526
H          2.03817        0.11225       -0.52507
H         -0.95698        3.36444        0.40524
H         -0.18556        5.40033        1.53492
H          3.55355        6.21252        3.79903
H          3.91630        6.45132        2.03648
H          2.97230        7.60762        2.93275
H          4.58351        2.59393        1.82212
H          4.52150        4.73162        0.70262
H          3.81600        4.28542        4.23791
H          4.40339        1.31122        3.91244
H          4.02171        2.14794        5.42731
H          2.80464        2.04057        4.15745
H          5.96118        3.36665        5.07920
H          6.39306        3.13694        3.50898
H          2.90751        1.61605        0.95447
