44

C          2.42571        0.10294        0.04234
C          0.92615        0.08658       -0.02907
C          0.24855       -1.13907       -0.07622
C         -1.14255       -1.17284       -0.16944
C         -1.86036        0.02610       -0.22141
S         -3.62916       -0.06071       -0.38279
O         -3.88907       -0.26048       -1.79455
O         -4.08095       -1.02451        0.60420
O         -4.16943        1.43091        0.03039
C         -5.47461        1.71917        0.05292
C         -6.55462        1.19220        0.74315
C         -6.51293        0.12839        1.71908
O         -6.00116        0.34194        2.81631
C         -7.11294       -1.22163        1.43957
C         -7.17786       -2.08644        2.55516
C         -7.69932       -3.37907        2.45344
C         -8.17282       -3.83097        1.23065
Cl        -8.82579       -5.41519        1.09461
C         -8.11080       -3.00807        0.11160
C         -7.57110       -1.71336        0.20353
Cl        -7.49663       -0.86815       -1.30091
C         -7.66228        1.99785        0.36370
C         -9.06942        1.91962        0.82938
N         -7.31418        2.92343       -0.53705
N         -5.99294        2.73244       -0.71195
C         -5.30290        3.55255       -1.67880
C         -1.20329        1.25571       -0.15323
C          0.19118        1.28050       -0.06013
H          2.76786       -0.42446        0.93846
H          2.84830       -0.38212       -0.84384
H          2.81578        1.12507        0.08320
H          0.80475       -2.07426       -0.04717
H         -1.65782       -2.13041       -0.20989
H         -6.80168       -1.76006        3.52540
H         -7.72335       -4.02167        3.33008
H         -8.47078       -3.38072       -0.84572
H         -9.41387        2.89689        1.18277
H         -9.72265        1.59730        0.01203
H         -9.18242        1.20805        1.65281
H         -5.69908        3.31563       -2.66986
H         -5.48663        4.60235       -1.43579
H         -4.23084        3.34824       -1.64803
H         -1.74888        2.19435       -0.18269
H          0.70448        2.23947       -0.01836
