20

O          1.37219        2.37018        0.01111
C          1.10592        1.18537       -0.02026
C         -0.27589        0.71057       -0.01664
C         -1.46251        1.41887       -0.00313
C         -2.64920        0.67951        0.01199
C         -2.62172       -0.73017        0.01667
C         -1.40717       -1.42296        0.00148
C         -0.24963       -0.66867       -0.01844
C          1.14950       -1.08316       -0.03677
O          1.48565       -2.25400       -0.03160
N          1.90622        0.07021       -0.05035
S          3.59747       -0.02064       -0.02327
C          4.29269        1.65170       -0.18427
Cl         3.81327        2.47097       -1.69054
Cl         4.03386        2.64082        1.27497
Cl         6.10103        1.43495       -0.30502
H         -1.47016        2.50455       -0.00338
H         -3.60732        1.19697        0.02237
H         -3.55907       -1.28423        0.03270
H         -1.37194       -2.50803        0.00674
