16

C         -1.36195        1.63089       -0.05819
N         -0.24844        0.71560       -0.13440
C          1.10745        1.15072        0.07279
C          1.91535       -0.09340       -0.23672
C          1.00595       -1.23318        0.20823
C         -0.38015       -0.65551        0.04514
O         -1.42033       -1.28779        0.12275
H         -1.44525        1.99898        0.96823
H         -1.18617        2.46646       -0.74049
H         -2.29080        1.12256       -0.33059
H          1.22199        1.45627        1.11836
H          1.35186        1.98455       -0.59096
H          2.88878       -0.10450        0.26126
H          2.08839       -0.16601       -1.31780
H          1.16283       -1.48046        1.26255
H          1.13622       -2.12161       -0.41412
