16

O          1.08427       -0.12349       -0.24968
N          2.28563       -0.07149        0.04486
O          2.95184        0.96523        0.15387
C          2.97503       -1.34074        0.28234
C          2.51600       -2.49961       -0.34529
C          3.17920       -3.70690       -0.11370
C          4.29203       -3.77513        0.74477
Cl         4.97004       -5.35421        0.92670
C          4.74562       -2.60322        1.37417
N          5.89256       -2.57523        2.29868
O          6.11809       -1.50405        2.88005
O          6.57611       -3.59153        2.45207
C          4.08396       -1.37772        1.13627
H          1.65526       -2.47932       -1.01250
H          2.81631       -4.60744       -0.61002
H          4.42129       -0.45839        1.61630
