42

C         -1.37524        0.49568        1.07896
N         -1.35550       -0.84668        1.60957
C         -2.35022       -1.05345        2.64268
C         -0.13487       -1.66413        1.66176
C          0.26786       -2.47859        0.37235
O          1.28659       -2.03675       -0.54930
C          1.17686       -0.74165       -1.19848
C         -0.30238       -0.58711       -1.65801
C          1.82984        0.27534       -0.22084
C          2.65670       -0.17926        0.83491
C          3.06606        0.66404        1.87372
C          2.75469        2.01510        1.82890
C          2.06653        2.52019        0.73117
C          1.60658        1.66233       -0.27847
C          1.90273       -0.68525       -2.60399
C          1.72284        0.47468       -3.39711
C          2.02648        0.45374       -4.75787
C          2.53798       -0.69586       -5.30447
C          2.74472       -1.78666       -4.46814
N          2.42894       -1.80758       -3.14281
H         -1.49834        1.28799        1.82404
H         -2.21009        0.57084        0.37096
H         -0.48779        0.74766        0.52595
H         -3.07755       -1.77857        2.27041
H         -1.93304       -1.41172        3.58882
H         -2.90702       -0.13605        2.87694
H          0.70438       -1.12819        2.10654
H         -0.34757       -2.46011        2.39184
H          0.68366       -3.42180        0.75417
H         -0.62201       -2.79685       -0.18200
H         -1.04272       -0.87354       -0.92118
H         -0.55764        0.42208       -1.99009
H         -0.51208       -1.28316       -2.48511
H          2.91845       -1.23486        0.91443
H          3.59778        0.25256        2.72835
H          3.04687        2.67001        2.64517
H          1.84905        3.58377        0.67706
H          1.01077        2.10430       -1.06843
H          1.25312        1.36224       -3.00746
H          1.81370        1.32896       -5.37045
H          2.76226       -0.75693       -6.36686
H          3.15394       -2.70800       -4.85939
