45

O          1.48224       -2.77624       -0.00770
C          2.23905       -2.27801       -1.11765
C          1.53428       -1.27188       -2.09603
O         -0.02049       -2.15991       -2.27988
C         -1.50916       -1.37526       -2.27246
O         -1.99486       -0.31302       -1.10256
C         -0.96163        0.73462       -0.65587
C          0.06391       -0.22085       -1.09634
C          1.31568        0.13011        0.12162
O          1.02576       -0.56765        1.33528
O          0.31352       -0.30684       -3.11294
C          0.76253        1.28014       -4.07919
O          0.10107        1.28115       -5.35202
C          0.31413        2.79481       -2.96091
O         -0.53511        3.71367       -3.68866
C         -0.43270        2.46204       -1.23620
O         -1.47226        3.42453       -0.95199
C         -1.69089       -0.46673       -3.46438
O         -3.07622       -0.16848       -3.70967
C         -0.86883        0.97467       -2.84787
O         -2.12467        1.68729       -2.36164
C          1.20762        0.76936       -2.15208
O          2.15706        1.70558       -1.60193
H          1.22145       -2.07158        0.61528
H          3.23557       -1.98303       -0.79029
H          2.36578       -3.19543       -1.70806
H          2.01995       -1.48210       -3.07351
H         -2.23448       -2.19063       -2.22210
H         -1.12462        0.84085        0.42158
H         -0.19161       -1.21377       -0.69107
H          2.33816       -0.13456       -0.16101
H          1.31470        1.17944        0.41929
H          1.70615       -0.30595        1.98832
H          1.83619        1.28654       -4.34177
H          0.60376        0.67321       -5.92360
H          1.23678        3.36644       -2.81160
H         -0.68964        3.33931       -4.57732
H          0.30796        2.77374       -0.50493
H         -2.14684        3.20623       -1.63437
H         -1.26188       -0.84698       -4.40278
H         -3.11718        0.78464       -3.91590
H         -1.04925        1.51509       -3.77507
H         -2.71508        0.97568       -2.00206
H          2.02843        0.59049       -2.88191
H          1.87683        2.40856       -1.00208
