21

C          0.98411       -0.21517        0.02366
C          0.23195        0.11862        1.07991
C         -1.23772        0.12781        1.08671
C         -1.99139       -0.82267        0.39064
C         -3.38520       -0.80270        0.45079
C         -4.03327        0.16919        1.21523
O         -5.40383        0.17165        1.26421
C         -3.30936        1.13684        1.93313
C         -4.01866        2.13601        2.75933
C         -3.50635        3.26395        3.27096
C         -1.90593        1.08635        1.86685
H          0.55683       -0.50384       -0.93104
H          2.06744       -0.18641        0.09133
H          0.71857        0.42990        2.00188
H         -1.50184       -1.59803       -0.19332
H         -3.94502       -1.55453       -0.09668
H         -5.74006       -0.54502        0.70267
H         -5.06931        1.92165        2.94927
H         -4.13541        3.92467        3.86015
H         -2.47992        3.57565        3.12064
H         -1.31235        1.80278        2.42868
