70

C          1.69117        0.32794       -0.21782
C          1.61253        0.34576        1.30041
C          1.58698        1.73071        1.96300
C          0.72629        2.81646        1.31432
C         -0.66986        2.88973        1.88986
O         -0.92246        3.11785        3.06085
O         -1.59364        2.65281        0.92548
C         -2.96013        2.68511        1.30880
C         -3.48610        2.01484        2.58869
O         -4.15543        2.68954        3.37954
C         -3.41946        0.48372        2.72791
C         -2.13497       -0.23033        2.26865
C         -1.90769       -0.35470        0.76408
C         -2.34988       -1.63958        2.80698
C         -2.97805       -1.46684        4.18261
C         -3.91062       -2.64612        4.55088
C         -3.06303       -3.92413        4.57393
C         -3.75427       -5.08281        5.24229
F         -2.87403       -6.12401        5.27190
C         -4.21092       -4.71971        6.64904
C         -4.44925       -5.76113        7.47577
C         -5.78724       -6.37348        7.12013
O         -6.07968       -7.50538        7.48185
C         -6.76576       -5.51186        6.36053
C         -6.51575       -4.20101        6.13100
C         -5.22991       -3.55510        6.66317
C         -5.59153       -3.08559        8.10253
C         -4.58452       -2.32428        5.90131
C         -5.50546       -1.08415        5.73546
O         -5.55250       -0.34798        6.95639
C         -5.13414       -0.13156        4.57434
C         -3.63063       -0.05534        4.20528
C         -2.86322        0.79599        5.25071
H          0.78429        0.73226       -0.67578
H          1.79431       -0.70330       -0.57325
H          2.55140        0.89848       -0.57919
H          0.74479       -0.23598        1.62014
H          2.48541       -0.19375        1.69133
H          1.29210        1.59246        3.01137
H          2.62021        2.09788        1.98618
H          1.17761        3.79705        1.51087
H          0.68847        2.72902        0.22507
H         -3.26838        3.73782        1.32866
H         -3.52689        2.23214        0.48554
H         -4.24436        0.11373        2.10197
H         -1.25540        0.21518        2.74722
H         -1.36077        0.49111        0.35662
H         -1.29287       -1.23388        0.53620
H         -2.84839       -0.44731        0.21562
H         -1.40471       -2.19188        2.86514
H         -3.02111       -2.20037        2.14409
H         -2.14710       -1.47398        4.90422
H         -4.69169       -2.76530        3.78647
H         -2.10038       -3.74985        5.07003
H         -2.81375       -4.22119        3.54653
H         -4.59515       -5.40350        4.61629
H         -4.48057       -5.62093        8.55637
H         -7.67976       -6.00771        6.05680
H         -7.26696       -3.59279        5.63813
H         -6.41286       -2.35944        8.08748
H         -5.94203       -3.89918        8.74817
H         -4.73254       -2.62418        8.60078
H         -3.76574       -2.00583        6.56746
H         -6.53492       -1.41065        5.55511
H         -4.71462        0.13075        7.07037
H         -5.51618        0.87492        4.78873
H         -5.68417       -0.48062        3.69064
H         -2.78530        0.27681        6.21218
H         -1.83941        1.00737        4.92327
H         -3.35340        1.75248        5.45312
