12

O         -2.46206       -1.31690       -0.03143
C         -1.55843       -0.48977       -0.01971
C         -1.84963        0.95866       -0.01091
C         -0.83056        1.82159        0.00410
N          0.46582        1.38253        0.01081
C          0.80407        0.05739        0.00196
S          2.38994       -0.43792        0.00978
N         -0.23219       -0.83268       -0.01360
H         -2.88773        1.26112       -0.01675
H         -0.98242        2.89620        0.01154
H          1.22739        2.05488        0.02257
H         -0.02067       -1.81969       -0.01981
