19

C          1.11365        0.01280        0.06868
N          0.55405       -1.24198        0.54785
C         -0.92121       -1.30403        0.41496
C         -1.48850       -1.25766       -1.00631
C         -1.09198       -2.42482       -1.86605
O         -1.85870       -3.20685       -2.40402
O          0.23497       -2.52254       -2.06908
C         -1.45133       -2.55813        1.11605
O         -2.43206       -2.61094        1.84232
O         -0.77557       -3.68593        0.80533
H          0.68174        0.86831        0.59741
H          0.96806        0.14534       -1.00737
H          2.19190        0.02160        0.25621
H          0.95266       -2.01658        0.00726
H         -1.33237       -0.45874        0.98285
H         -2.58528       -1.26651       -0.95117
H         -1.21745       -0.33365       -1.52743
H          0.32962       -3.31059       -2.64588
H         -1.24330       -4.38286        1.31184
