31

N          1.24412       -0.01307        0.12878
S          0.40045        1.30391        0.74353
O          1.01017        2.46419        0.13501
O         -0.99739        0.98344        0.59262
C          0.78460        1.32723        2.46801
C          1.53531        0.31632        3.06552
C          1.91176        0.44478        4.40640
C          1.54038        1.57028        5.15742
S          2.16207        1.68219        6.82457
C          2.30674        3.48021        7.16009
C          3.51111        4.18130        6.51922
C          3.33943        4.66439        5.07367
C          2.26761        5.73451        4.87697
O          2.66643        6.96718        5.45907
C          0.70544        2.52252        4.56799
C          0.35231        2.42252        3.21905
H          0.58135       -0.67913       -0.27117
H          1.94427        0.31566       -0.53805
H          1.85283       -0.55990        2.50743
H          2.51721       -0.34002        4.85768
H          1.36296        3.99465        6.97097
H          2.45320        3.53315        8.24588
H          3.75531        5.05529        7.13676
H          4.39306        3.53051        6.57239
H          4.30112        5.08521        4.75292
H          3.14212        3.81448        4.41615
H          2.12013        5.91150        3.80679
H          1.29953        5.45264        5.29667
H          2.64395        6.87056        6.42500
H          0.33132        3.36752        5.13456
H         -0.24727        3.20521        2.75816
