26

C          0.97351       -0.15902        0.15830
C          0.58687        0.45833       -1.15307
C          0.07421       -0.26523       -2.16016
C         -0.27164        0.32144       -3.42923
C         -0.13830        1.63576       -3.68020
C         -0.48783        2.26597       -5.01926
C          0.38792        1.71756       -6.14913
C         -1.97219        2.10801       -5.35812
C          0.38196        2.58060       -2.61989
C          0.81495        1.94340       -1.28444
H          0.71816       -1.22298        0.20331
H          0.45716        0.34175        0.98346
H          2.05301       -0.06632        0.31562
H         -0.08379       -1.33579       -2.05824
H         -0.64587       -0.35966       -4.18896
H         -0.28871        3.34420       -4.95580
H          0.20380        0.65274       -6.32894
H          0.18717        2.25118       -7.08452
H          1.45121        1.84282       -5.91617
H         -2.60143        2.51810       -4.56050
H         -2.21392        2.64529       -6.28182
H         -2.24952        1.05833       -5.50330
H         -0.39501        3.32799       -2.41195
H          1.23770        3.13365       -3.02843
H          1.88258        2.14744       -1.13142
H          0.28624        2.45611       -0.47040
