179

C          1.03904        0.02975       -0.16327
C          0.63083       -1.43559       -0.15417
C          1.08550       -2.18788        1.09951
C          0.54669       -1.64461        2.42904
C         -0.97985       -1.61405        2.56791
C         -1.67772       -2.96900        2.41448
C         -1.26626       -4.03304        3.44730
O         -1.66396       -3.61388        4.75283
C         -1.91478       -5.40294        3.16626
C         -1.42696       -5.95877        1.86145
C         -0.61170       -7.01422        1.77215
C          0.11600       -7.35892        0.50841
C          1.63037       -7.32420        0.75320
C          2.11633       -8.36864        1.76670
C          1.66524       -9.78744        1.41551
C          2.17186      -10.22616        0.03909
C          3.70422      -10.26898       -0.06888
C          4.42075      -10.91292        1.11554
C          4.22739      -12.39861        1.15806
O          5.16447      -13.13378        1.42374
O          2.94770      -12.72271        0.86501
C          2.29602      -14.01465        0.87370
C          2.94005      -15.10305        0.02046
C          4.40530      -15.44408        0.25714
O          4.77052      -15.98091        1.54380
C          4.39265      -15.57495        2.77909
O          3.81160      -14.55163        3.10103
C          4.79837      -16.60712        3.79428
C          4.25283      -17.99935        3.47099
C          4.77240      -18.62266        2.16822
C          6.29701      -18.58795        2.06022
C          6.95018      -19.44375        3.14331
C          6.50321      -20.91160        3.07705
C          6.65586      -21.53887        1.68403
C          8.08592      -21.43272        1.25855
C          8.89250      -22.49382        1.19584
C         10.38266      -22.37232        1.08204
C         11.10411      -23.03822        2.27703
C         10.71120      -24.52119        2.48747
C         10.92025      -25.44470        1.27711
C         12.37247      -25.82735        0.99651
C         13.02488      -26.67506        2.09082
C         12.53474      -28.12321        2.12417
C         12.91625      -28.89405        0.86891
O         12.55626      -22.93153        2.32240
C         13.29230      -22.48114        1.28382
O         12.89700      -22.00748        0.23153
C         14.71938      -22.77890        1.47710
C         15.32934      -22.84773        2.66674
C         16.75793      -23.15857        2.77290
O         17.41093      -23.06604        3.79943
O         17.30344      -23.58982        1.62611
O          2.20165      -16.35636       -0.07638
C          1.79124      -17.00683        1.03984
O          1.67574      -16.52151        2.15289
C          1.47328      -18.44696        0.73625
C         -0.01547      -18.61793        0.49098
C         -0.48735      -17.92089       -0.78670
C          0.10600      -18.51673       -2.06710
C         -0.32716      -19.96237       -2.32762
C         -1.84967      -20.15479       -2.39074
C         -2.56610      -19.23260       -3.38645
C         -2.11924      -19.52195       -4.78725
C         -2.94155      -19.96698       -5.74583
C         -2.45135      -20.44034       -7.08681
C         -2.76677      -21.93540       -7.27733
O         -4.17803      -22.10203       -7.46569
C         -2.08123      -22.53298       -8.51056
C         -0.55394      -22.62409       -8.42897
C         -0.01400      -23.49991       -7.29243
C         -0.41016      -24.97888       -7.36736
C          0.02637      -25.70654       -8.64213
C          1.53445      -25.72257       -8.84184
H          0.54576        0.58924        0.63678
H          0.75612        0.49375       -1.11358
H          2.12196        0.13618       -0.04401
H         -0.45488       -1.51444       -0.27484
H          1.07531       -1.92412       -1.03012
H          0.81142       -3.24437        0.99424
H          2.18213       -2.16672        1.14126
H          0.97475       -2.23997        3.24378
H          0.92611       -0.62782        2.58349
H         -1.23590       -1.18155        3.54163
H         -1.39661       -0.92922        1.81971
H         -2.75835       -2.79911        2.50202
H         -1.50111       -3.32245        1.39476
H         -0.17733       -4.16203        3.46015
H         -1.10823       -2.85464        4.99693
H         -1.67440       -6.08307        3.99512
H         -3.00698       -5.32241        3.15590
H         -1.67324       -5.40868        0.95778
H         -0.37899       -7.58696        2.66724
H         -0.21686       -8.33482        0.14205
H         -0.11897       -6.64245       -0.28752
H          2.14825       -7.46722       -0.20248
H          1.93075       -6.32950        1.10526
H          3.20944       -8.31713        1.82699
H          1.76435       -8.12106        2.77416
H          1.99606      -10.47961        2.19818
H          0.57288       -9.86403        1.43848
H          1.73007      -11.19634       -0.20695
H          1.78819       -9.56968       -0.74821
H          3.97383      -10.79914       -0.99064
H          4.08231       -9.24661       -0.17804
H          5.49712      -10.73293        1.00473
H          4.13932      -10.49812        2.08727
H          2.02547      -14.27955        1.89276
H          1.30977      -13.82481        0.42554
H          2.90382      -14.71246       -1.00638
H          4.64001      -16.26594       -0.43424
H          5.09515      -14.66302       -0.06133
H          5.88687      -16.58558        3.89882
H          4.38972      -16.29211        4.76150
H          4.49516      -18.66394        4.30711
H          3.16075      -17.97064        3.43473
H          4.39114      -19.64544        2.09108
H          4.34407      -18.14003        1.28751
H          6.59253      -18.92102        1.05931
H          6.68675      -17.56682        2.12672
H          8.03950      -19.36802        3.05071
H          6.72167      -19.04295        4.13718
H          7.08477      -21.48354        3.81004
H          5.45823      -21.00106        3.39597
H          6.32731      -22.58332        1.72958
H          6.01420      -21.05338        0.94126
H          8.50121      -20.43741        1.11253
H          8.46361      -23.48462        1.31332
H         10.68663      -22.81156        0.12830
H         10.67236      -21.31354        1.04958
H         10.77610      -22.50896        3.18314
H         11.24231      -24.91337        3.35980
H          9.64980      -24.57262        2.76110
H         10.33133      -26.35617        1.43048
H         10.50146      -24.98572        0.37503
H         12.41799      -26.34766        0.03461
H         12.97072      -24.93146        0.84748
H         14.11050      -26.67062        1.93559
H         12.86717      -26.22378        3.07576
H         12.98434      -28.62100        2.99101
H         11.44959      -28.16414        2.26754
H         13.98766      -28.79971        0.66417
H         12.68308      -29.95549        0.98989
H         12.36666      -28.53455       -0.00607
H         15.25423      -22.92981        0.54529
H         14.81731      -22.65619        3.60209
H         18.23987      -23.76882        1.85233
H          2.09162      -18.80343       -0.09425
H          1.78038      -19.04543        1.60178
H         -0.25655      -19.68599        0.45814
H         -0.57216      -18.20475        1.34073
H         -1.58099      -17.95609       -0.81995
H         -0.24009      -16.85448       -0.74664
H         -0.18125      -17.88418       -2.91461
H          1.20028      -18.47358       -2.04354
H          0.13190      -20.30314       -3.26318
H          0.08056      -20.62197       -1.55278
H         -2.05655      -21.20201       -2.64633
H         -2.28019      -20.00284       -1.39407
H         -3.64728      -19.38487       -3.28544
H         -2.38608      -18.17746       -3.15672
H         -1.05722      -19.41704       -5.00001
H         -4.00674      -20.04655       -5.54605
H         -2.93764      -19.84199       -7.86506
H         -1.37272      -20.26473       -7.15973
H         -2.49568      -22.51064       -6.38469
H         -4.60263      -21.92714       -6.60847
H         -2.50112      -23.52751       -8.70632
H         -2.35389      -21.93598       -9.39068
H         -0.17790      -22.99652       -9.38861
H         -0.12849      -21.62016       -8.32422
H          1.07922      -23.41859       -7.28090
H         -0.34184      -23.09813       -6.32668
H          0.02157      -25.49591       -6.50101
H         -1.49736      -25.07360       -7.26266
H         -0.32871      -26.74273       -8.58911
H         -0.45467      -25.26208       -9.52004
H          2.03732      -26.18207       -7.98503
H          1.78994      -26.30090       -9.73530
H          1.93476      -24.71361       -8.97743
