22

C          0.51109        0.02890        0.17515
O          0.80113        1.41634        0.34290
C          1.16617        1.76136        1.61713
C          0.23436        2.56326        2.30075
C          0.55398        3.14224        3.53644
C         -0.43669        4.03521        4.18868
O         -1.58790        4.19929        3.84185
O          0.08820        4.71138        5.22840
C          1.80524        2.90061        4.10460
C          2.72910        2.09601        3.43347
C          2.43332        1.52783        2.17805
C          3.55561        0.77278        1.55767
O          4.66927        0.66639        2.04476
O          3.27962        0.16105        0.39991
H         -0.55151       -0.08492       -0.05839
H          0.75429       -0.58751        1.04742
H          1.07488       -0.33303       -0.69136
H         -0.73287        2.76790        1.84359
H         -0.64259        5.28892        5.53410
H          2.08479        3.34837        5.05595
H          3.70821        1.94204        3.88711
H          4.12475       -0.27049        0.15581
