57

C          1.73629        0.13658       -0.14342
C          1.02617       -1.05086       -0.77300
C          1.22610       -2.36465       -0.00934
C          0.54346       -2.44795        1.35875
O         -0.88809       -2.55050        1.23453
C         -1.58268       -1.38973        1.34087
O         -1.09309       -0.30296        1.62727
C         -3.07550       -1.57258        1.18362
C         -3.58840       -2.70756        0.27520
O         -3.18909       -3.96344        0.88780
C         -5.12737       -2.76884        0.25690
C         -5.90435       -1.64546       -0.39123
O         -7.10104       -1.73841       -0.63712
O         -5.17094       -0.52142       -0.56377
C         -5.88100        0.69019       -0.88625
C         -5.56798        1.12843       -2.31279
C         -6.09180        0.16874       -3.38089
C         -7.60313        0.20508       -3.53522
C         -2.96458       -2.70513       -1.13552
O         -1.77159       -2.51260       -1.33236
O         -3.83372       -3.07863       -2.11227
C         -3.24304       -3.42570       -3.38114
C         -3.41855       -2.31649       -4.41610
C         -2.76096       -0.98371       -4.05185
C         -1.24570       -1.00130       -4.17873
H          1.38272        0.33221        0.87186
H          1.55271        1.03745       -0.73849
H          2.81706       -0.02903       -0.10616
H         -0.03552       -0.81500       -0.87894
H          1.41384       -1.18137       -1.79090
H          0.84467       -3.17891       -0.63774
H          2.30128       -2.53684        0.12038
H          0.86544       -3.37374        1.84893
H          0.84261       -1.63088        2.02359
H         -3.46813       -1.71052        2.19853
H         -3.42095       -0.60277        0.81936
H         -2.20882       -3.97029        0.90657
H         -5.44269       -3.69623       -0.24081
H         -5.49183       -2.84678        1.28997
H         -6.95815        0.60897       -0.70784
H         -5.50973        1.45442       -0.19385
H         -5.97365        2.13193       -2.48551
H         -4.47899        1.19734       -2.42251
H         -5.64033        0.43505       -4.34368
H         -5.77774       -0.85409       -3.15473
H         -7.93792        1.19822       -3.85004
H         -7.91715       -0.51556       -4.29708
H         -8.11431       -0.05099       -2.60367
H         -2.19227       -3.72201       -3.28278
H         -3.77464       -4.31802       -3.73050
H         -3.03690       -2.66255       -5.38400
H         -4.49210       -2.14053       -4.54617
H         -3.14798       -0.20845       -4.72373
H         -3.04180       -0.68193       -3.03838
H         -0.94639       -1.13534       -5.22279
H         -0.83109       -0.05012       -3.82890
H         -0.79051       -1.80171       -3.59096
