14

C          0.96377        0.04569        0.24908
N          0.37828       -0.92837        1.15803
C          1.13061       -2.13698        1.44589
C          0.17166       -3.17242        1.99417
S         -1.00968       -2.17756        2.93022
C         -0.76781       -0.75525        1.91558
S         -1.81466        0.53815        1.91928
H          0.42691        0.99578        0.25364
H          0.94025       -0.37269       -0.76106
H          2.00173        0.22529        0.54340
H          1.61907       -2.50059        0.53617
H          1.90622       -1.88266        2.17861
H          0.67123       -3.91959        2.61601
H         -0.36182       -3.67822        1.18319
