35

N          2.21888        0.10248       -0.33161
C          0.84171        0.06972       -0.08402
C          0.15425       -1.14799       -0.09858
C         -1.23616       -1.18416        0.03276
C         -1.94941        0.01279        0.13652
S         -3.72057       -0.07783        0.32823
O         -4.20583       -0.77446       -0.84807
O         -3.92866       -0.58225        1.66832
N         -4.23067        1.46095        0.24769
C         -5.48830        1.72644        0.08900
C         -5.93563        3.14665       -0.05965
C         -6.89712        3.35439       -1.19965
O         -7.05775        4.46165       -1.70535
C         -7.71590        2.20311       -1.66123
C         -8.66083        2.39775       -2.67662
C         -9.47909        1.34153       -3.08420
C         -9.36256        0.09014       -2.47859
C         -8.42333       -0.11149       -1.46727
C         -7.59635        0.94427       -1.06757
C         -6.60917        0.72231       -0.00145
O         -6.70725       -0.17945        0.80973
C         -1.28613        1.23928        0.08383
C          0.10583        1.25926       -0.04906
H          2.70708       -0.73778       -0.03634
H          2.67589        0.94523        0.00296
H          0.69907       -2.08266       -0.20565
H         -1.75488       -2.14019        0.04788
H         -6.42169        3.46170        0.86945
H         -5.05739        3.77887       -0.23131
H         -8.77371        3.37329       -3.14786
H        -10.21454        1.49762       -3.87110
H        -10.00486       -0.72955       -2.79457
H         -8.33438       -1.09080       -0.99854
H         -1.82619        2.17961        0.13883
H          0.61602        2.21691       -0.11862
