50

O         -0.35102       -0.44010        0.39156
C          0.84799       -0.24527        0.39043
O          1.43906        0.80217       -0.22726
C          1.82010       -1.16769        1.02110
C          2.97012       -0.69061        1.64070
C          3.92512       -1.58932        2.13187
C          3.73528       -2.96946        2.07143
N          4.65268       -3.97686        2.44735
C          5.97234       -4.06888        2.79071
O          6.43865       -5.21949        2.80021
C          6.92995       -2.88972        3.03021
C          7.51629       -2.26565        1.72690
C          6.65512       -2.15194        0.48346
C          6.23366       -0.89731        0.01553
C          5.31039       -0.80378       -1.03008
C          4.80910       -1.96046       -1.61255
O          3.80960       -1.82727       -2.52926
C          5.29623       -3.20751       -1.24333
C          6.24141       -3.29809       -0.21700
N          6.31350       -1.96099        3.98733
C          6.72624       -1.52511        5.21554
O          5.85923       -1.11525        5.98701
C          8.13090       -1.55660        5.66561
C          8.35717       -1.85127        7.01831
C          9.64875       -1.82298        7.54056
C         10.71984       -1.49169        6.71423
C         10.49876       -1.18207        5.37067
C          9.20348       -1.20564        4.84508
C          2.52619       -3.42766        1.51983
C          1.58126       -2.53993        0.98685
H          2.40259        0.70601       -0.35119
H          3.16159        0.37630        1.73300
H          4.82597       -1.11972        2.49314
H          4.30411       -4.92221        2.31743
H          7.78323       -3.32072        3.57046
H          7.91885       -1.27255        1.95809
H          8.38833       -2.86636        1.43163
H          6.57655        0.01684        0.49491
H          4.95322        0.16648       -1.36161
H          3.46273       -2.71091       -2.74088
H          4.93881       -4.11640       -1.71758
H          6.60497       -4.28372        0.07013
H          5.30801       -2.06337        4.07393
H          7.51898       -2.08590        7.67279
H          9.81290       -2.04359        8.59231
H         11.72665       -1.45722        7.12352
H         11.33770       -0.89992        4.73903
H          9.04742       -0.90590        3.81654
H          2.31678       -4.49337        1.44816
H          0.67339       -2.92404        0.52624
