27

C          1.62379        0.53638       -0.64078
C          1.05658       -0.82593       -0.40000
O          0.47665       -1.12840        0.63085
O          1.23171       -1.61901       -1.48564
C          0.38624       -2.77775       -1.62971
C          0.79589       -3.99722       -0.80100
C          0.14506       -4.15587        0.58272
C         -1.36737       -4.18838        0.60378
C         -2.11008       -3.00160        0.69016
C         -3.50390       -3.01820        0.72235
C         -4.18034       -4.23150        0.69618
C         -3.46024       -5.42318        0.62679
C         -2.06253       -5.40313        0.57149
H          1.39179        1.17215        0.22024
H          1.14937        0.97788       -1.52120
H          2.70658        0.48357       -0.76029
H         -0.66285       -2.49346       -1.51986
H          0.49914       -3.05721       -2.68507
H          0.54082       -4.89366       -1.38205
H          1.88550       -4.00006       -0.67407
H          0.50945       -5.10098        1.01001
H          0.50831       -3.39457        1.27854
H         -1.61116       -2.03951        0.74118
H         -4.05227       -2.08178        0.78065
H         -5.26554       -4.24701        0.74011
H         -3.98954       -6.37206        0.62429
H         -1.52196       -6.34534        0.52604
