80

C          1.43428       -0.55425        0.28337
C          1.30541        0.77492        1.00485
C          1.58543        1.98081        0.10886
C          0.64308        2.15530       -1.08657
C         -0.85628        2.13168       -0.77102
C         -1.31951        3.05178        0.36156
C         -0.87429        4.50447        0.24753
C         -1.31293        5.19742       -1.02750
C         -2.83353        5.29515       -1.16448
C         -3.23347        6.69181       -1.61306
C         -2.55143        7.08522       -2.91582
C         -3.37287        6.64806       -4.07154
O         -4.38048        7.29929       -4.37706
N         -3.09934        5.61758       -4.87601
C         -2.26508        4.40500       -5.09444
C         -3.14532        3.35294       -5.79251
C         -4.23890        3.83068       -6.79160
C         -4.17638        5.13866       -7.64385
O         -5.08723        5.44336       -8.38718
N         -3.10710        5.97296       -7.39301
C         -2.96610        7.38304       -7.74837
C         -1.93394        8.11987       -6.85361
C         -0.44850        7.74801       -6.97730
C          0.30432        8.56733       -8.00830
C         -0.83525        4.48559       -5.77978
O          0.11713        4.88036       -5.08965
N         -0.51447        4.25935       -7.09952
C         -1.10666        3.81655       -8.39977
C         -1.21686        4.95895       -9.44139
C         -0.33336        4.92256      -10.68930
C         -0.78566        3.92181      -11.73724
H          0.71020       -0.64223       -0.53159
H          1.24975       -1.37570        0.98249
H          2.43965       -0.67656       -0.13019
H          0.30871        0.84622        1.45086
H          2.01500        0.79460        1.84047
H          1.55767        2.88172        0.73139
H          2.61285        1.91724       -0.27095
H          0.89400        3.09975       -1.58554
H          0.84960        1.37385       -1.82817
H         -1.40466        2.38057       -1.68872
H         -1.15766        1.10727       -0.52233
H         -2.41374        3.00387        0.41620
H         -0.96235        2.66931        1.32267
H         -1.26625        5.06412        1.10581
H          0.21514        4.57977        0.31558
H         -0.85975        6.19637       -1.00691
H         -0.90017        4.69777       -1.91164
H         -3.19324        4.55148       -1.88626
H         -3.33900        5.08331       -0.21600
H         -4.32667        6.74564       -1.69898
H         -2.95133        7.40601       -0.82886
H         -2.52389        8.18328       -2.96776
H         -1.51952        6.75397       -3.03323
H         -3.74364        5.79815       -5.62971
H         -2.03231        4.03327       -4.08686
H         -2.52521        2.57522       -6.25282
H         -3.67981        2.81318       -4.99467
H         -4.44466        3.00355       -7.48125
H         -5.15341        3.95262       -6.19087
H         -2.23352        5.53875       -7.16874
H         -2.69739        7.45215       -8.80434
H         -3.94883        7.84465       -7.61243
H         -2.04095        9.19827       -7.00740
H         -2.19625        7.95117       -5.80960
H          0.03994        7.90304       -6.00562
H         -0.30823        6.69730       -7.20009
H          0.30466        9.62552       -7.73072
H          1.34846        8.23753       -8.06023
H         -0.13728        8.45956       -9.00190
H          0.48891        4.39740       -7.18971
H         -0.45903        3.02264       -8.78525
H         -2.08679        3.37872       -8.22860
H         -2.25796        5.02944       -9.78086
H         -0.98032        5.90821       -8.96592
H         -0.38560        5.91864      -11.15390
H          0.71530        4.76087      -10.42297
H         -1.85415        4.02716      -11.95403
H         -0.24348        4.09423      -12.67414
H         -0.59196        2.89694      -11.41377
