28

O          0.24380       -0.11258        1.17761
C          0.41755       -1.45241        1.63575
C          1.39183       -2.27303        0.78210
O          2.76692       -1.98213        1.10666
C          3.36047       -1.26131        0.10709
C          4.20419       -1.89863       -0.79573
C          4.75079       -1.16628       -1.84902
C          4.42208        0.18417       -2.00535
C          3.57230        0.81627       -1.09460
O          3.22257        2.10231       -1.40204
C          2.00041        2.61238       -0.84391
C          0.76211        2.15087       -1.62461
O          0.52705        0.74311       -1.52220
C          3.10878        0.10324        0.00531
H          0.15292       -0.11011        0.20104
H          0.76713       -1.39640        2.67103
H         -0.57033       -1.92246        1.62491
H          1.25047       -3.33292        1.02152
H          1.17965       -2.14812       -0.28829
H          4.42712       -2.95550       -0.68547
H          5.41354       -1.64966       -2.56214
H          4.81753        0.74123       -2.85116
H          1.91236        2.40792        0.22662
H          2.06502        3.70295       -0.93220
H         -0.12678        2.65603       -1.23487
H          0.86153        2.39522       -2.68711
H          1.24142        0.32251       -2.03889
H          2.51395        0.56712        0.78137
