33

C          2.64011       -0.49725       -0.18089
C          2.48782        0.75911        0.39718
C          1.24723        1.17606        0.88953
C          0.15540        0.30384        0.75618
S         -1.47044        0.50917        1.27890
C         -1.91001       -0.92438        0.44370
S         -3.57161       -1.44610        0.15480
N         -4.36532        0.00593       -0.03509
C         -4.48453        0.69947       -1.33257
C         -5.40273        1.91866       -1.11632
C         -5.51807        2.80035       -2.35757
C         -4.14894        3.23111       -2.86810
C         -3.27033        2.01920       -3.14843
C         -3.12659        1.14665       -1.90454
N         -0.90834       -1.64408       -0.01626
C          0.27248       -0.94022        0.13426
C          1.54367       -1.35548       -0.31313
H          3.61501       -0.81284       -0.54578
H          3.34419        1.42598        0.47166
H          1.12912        2.15390        1.34611
H         -5.29976       -0.08767        0.36468
H         -4.97044        0.02978       -2.05489
H         -6.40677        1.58476       -0.82510
H         -5.02073        2.52899       -0.28654
H         -6.11717        3.68711       -2.12160
H         -6.04888        2.25497       -3.14702
H         -3.66316        3.87289       -2.12197
H         -4.26099        3.82854       -3.77929
H         -2.27908        2.35252       -3.47682
H         -3.69938        1.42954       -3.96712
H         -2.57775        1.72605       -1.15382
H         -2.51211        0.27638       -2.16159
H          1.65384       -2.32946       -0.77857
