44

C          0.86757       -0.08117        0.06638
O          0.28403       -0.75646        1.17929
C          0.73128       -2.04053        1.32452
C          2.07367       -2.39383        1.30952
C          2.44598       -3.73155        1.48118
C          1.49318       -4.74848        1.63767
C          0.13782       -4.36423        1.74516
C         -0.22751       -3.01290        1.58997
C         -0.94874       -5.34628        2.11715
C         -0.53593       -6.80238        1.94946
C          0.85993       -7.02470        2.51659
C          1.86416       -6.18688        1.74617
C          2.90519       -6.81436        1.15557
C          3.97986       -6.29789        0.23354
C          5.40721       -6.41832        0.79837
C          5.57655       -6.12492        2.28788
C          6.34251       -5.50729        0.01985
O          6.21298       -4.29231       -0.07215
C          7.51797       -6.25880       -0.55011
C          7.05083       -7.70586       -0.59396
C          5.98463       -7.78556        0.46922
O          5.59379       -8.84256        0.94944
H          0.35080        0.87630       -0.05034
H          0.72963       -0.65339       -0.85807
H          1.92683        0.13618        0.23342
H          2.85285       -1.64741        1.19420
H          3.50820       -3.94837        1.50820
H         -1.27058       -2.71628        1.67391
H         -1.84784       -5.15924        1.51828
H         -1.21076       -5.16982        3.16872
H         -0.55324       -7.07280        0.88540
H         -1.25969       -7.45178        2.45505
H          0.89422       -6.75764        3.58041
H          1.09507       -8.09435        2.45529
H          2.99149       -7.89144        1.32148
H          3.77264       -5.27927       -0.10085
H          3.90790       -6.88834       -0.69166
H          6.62679       -6.21948        2.59090
H          5.26341       -5.10560        2.53498
H          5.00680       -6.82262        2.91067
H          8.36491       -6.14252        0.13378
H          7.78297       -5.88708       -1.54243
H          7.86761       -8.40134       -0.38813
H          6.59222       -7.93878       -1.56018
