36

C         -3.53663        1.29390       -0.03117
C         -2.81750        2.49123       -0.01921
C         -1.41637        2.48391       -0.00952
C         -0.68037        3.67612       -0.00246
C          0.71612        3.65179        0.01328
C          1.41015        2.43481        0.02559
C          2.81047        2.39333        0.05100
C          3.48742        1.17175        0.06755
C          2.78076       -0.03798        0.05278
C          3.44483       -1.27154        0.06685
C          2.72589       -2.46880        0.04280
C          1.32519       -2.46134        0.00717
C          0.58955       -3.65342       -0.02298
C         -0.80673       -3.62902       -0.05147
C         -1.50103       -2.41214       -0.04728
C         -2.90146       -2.37070       -0.06533
C         -3.57881       -1.14926       -0.05704
C         -2.87224        0.06045       -0.03680
C         -1.45950        0.03584       -0.02201
C         -0.73142        1.24830       -0.00628
C          0.68273        1.22361        0.01349
C          1.36826       -0.01329        0.02280
C          0.64026       -1.22572        0.00207
C         -0.77381       -1.20100       -0.02296
H         -4.62366        1.33446       -0.03747
H         -3.36380        3.43181       -0.01703
H         -1.18865        4.63777       -0.00894
H          1.25756        4.59522        0.01808
H          3.38905        3.31439        0.06051
H          4.57497        1.17448        0.09058
H          4.53150       -1.31222        0.09539
H          3.27199       -3.40945        0.05273
H          1.09797       -4.61502       -0.02439
H         -1.34788       -4.57235       -0.07485
H         -3.47990       -3.29173       -0.08369
H         -4.66655       -1.15206       -0.06810
