46

C          1.13466        0.12974        0.02795
C          0.68464        0.56070       -1.36108
C          1.27511       -0.26592       -2.50327
C          0.71416       -1.65746       -2.68803
O          0.38493       -2.11689       -3.77538
O          0.72333       -2.36834       -1.53176
C          0.15753       -3.66951       -1.63134
N         -1.23111       -3.71480       -1.22829
C         -2.06567       -2.64472       -1.09117
O         -1.82636       -1.47861       -1.37818
C         -3.39110       -3.18747       -0.49560
C         -3.42110       -2.83940        1.01179
C         -3.71053       -3.81832        1.97763
C         -3.83153       -3.47746        3.32584
C         -3.67476       -2.15382        3.73059
C         -3.37499       -1.17035        2.79253
C         -3.24004       -1.50975        1.44635
C         -4.62698       -2.68425       -1.27102
C         -5.72824       -2.08450       -0.62653
C         -6.82525       -1.60387       -1.34478
C         -6.86216       -1.73636       -2.72678
C         -5.80452       -2.35455       -3.38824
C         -4.69909       -2.82493       -2.66988
N         -3.22164       -4.66713       -0.69688
C         -1.99635       -4.80272       -1.06546
O         -1.48993       -6.02053       -1.30333
H          0.66443       -0.80762        0.33674
H          0.84881        0.88710        0.76522
H          2.22103        0.00656        0.07239
H         -0.40869        0.56291       -1.40772
H          1.00080        1.60145       -1.50372
H          1.06246        0.27150       -3.43677
H          2.36397       -0.34052       -2.41751
H          0.27908       -4.13535       -2.61612
H          0.71015       -4.30569       -0.92872
H         -3.86969       -4.85442        1.68285
H         -4.06929       -4.24590        4.05663
H         -3.79825       -1.88707        4.77653
H         -3.26706       -0.13412        3.10228
H         -3.03951       -0.71463        0.72838
H         -5.75886       -1.97319        0.45485
H         -7.64834       -1.12955       -0.81666
H         -7.71725       -1.36551       -3.28470
H         -5.83912       -2.47153       -4.46816
H         -3.89364       -3.30622       -3.22001
H         -0.59171       -6.02629       -1.65375
