31

C          1.40619        0.36609       -0.13828
O          1.22166       -1.00319        0.21005
C          1.18275       -1.80947       -0.89280
C          0.02370       -2.54803       -1.08786
C         -0.06498       -3.43136       -2.16199
C          1.01659       -3.61354       -3.04380
C          0.93776       -4.56547       -4.22783
C          0.62757       -3.81937       -5.52113
O          1.35195       -3.05836       -6.13597
C         -0.74464       -4.13641       -5.91956
C         -1.52169       -3.53402       -6.89049
C         -2.86092       -3.92756       -6.97776
C         -3.38525       -4.90788       -6.11141
C         -2.57337       -5.52899       -5.15918
C         -1.25341       -5.12530       -5.09094
C         -0.22996       -5.54033       -4.13339
O         -0.36774       -6.47292       -3.36378
C          2.18190       -2.85978       -2.82831
C          2.26752       -1.96628       -1.75296
H          1.08836        0.96970        0.71762
H          0.79229        0.65664       -0.99874
H          2.46281        0.57536       -0.32859
H         -0.81378       -2.43772       -0.40479
H         -0.99577       -3.98260       -2.27376
H          1.85708       -5.14739       -4.35756
H         -1.11547       -2.76029       -7.53486
H         -3.51460       -3.45532       -7.70924
H         -4.43928       -5.17295       -6.17564
H         -2.96958       -6.27059       -4.47190
H          3.03604       -2.96469       -3.49594
H          3.18860       -1.41675       -1.58449
