24

C          0.99957       -0.03452       -0.03280
C          0.60042        1.01437       -1.03964
C         -0.09898        0.59974       -2.18234
C         -0.49725        1.52332       -3.13787
C         -0.20457        2.87377       -2.96072
C          0.49891        3.34153       -1.83025
C          0.80011        4.71953       -1.63976
C          0.36791        5.77311       -2.62790
C          1.51429        5.13203       -0.50546
C          1.92876        4.20610        0.44085
C          1.62981        2.85655        0.26728
C          0.91430        2.39052       -0.85633
H          0.64138       -1.02860       -0.32172
H          0.56563        0.19272        0.94640
H          2.08978       -0.08905        0.04842
H         -0.33840       -0.45049       -2.33305
H         -1.03789        1.19549       -4.02156
H         -0.53711        3.56413       -3.73209
H          0.81913        5.58596       -3.60745
H         -0.72319        5.78419       -2.71821
H          0.67765        6.77503       -2.31142
H          1.75147        6.18258       -0.35346
H          2.48328        4.53191        1.31665
H          1.97146        2.16488        1.03347
