24

O          1.25918        0.05782       -0.34073
C          0.55122        1.18380       -0.88111
C         -0.63640        1.51891        0.03879
O         -1.58497        2.36887       -0.60724
C         -0.16641        2.12226        1.38082
O          0.61731        1.18512        2.14516
C          0.70749        3.36592        1.14084
O          1.13820        3.90083        2.39526
C          1.93391        3.02917        0.27415
O          2.85392        2.15164        0.95171
C          1.51801        2.37279       -1.05488
O          2.69130        1.90138       -1.73811
H          2.02781       -0.06631       -0.93493
H          0.18484        0.87821       -1.86838
H         -1.16267        0.58256        0.26164
H         -1.16216        3.17236       -0.95066
H         -1.02806        2.39853        1.99879
H          0.32755        0.28303        1.90108
H          0.11701        4.14520        0.64670
H          1.58622        3.16408        2.85745
H          2.51025        3.93917        0.07321
H          2.31502        1.47351        1.41638
H          1.04198        3.12728       -1.69144
H          3.38716        1.83125       -1.04868
