35

C          0.90365        0.13368       -0.15691
C          0.42725        0.55591       -1.54039
N          1.06983       -0.26324       -2.55556
C          0.21976       -1.02938       -3.34226
N         -0.89512       -0.50604       -3.84074
C         -1.63345       -1.30304       -4.60491
N         -2.78843       -0.74103       -5.07513
C         -3.68533       -1.18635       -6.13852
C         -5.11439       -1.10380       -5.57332
C         -3.55481       -0.20593       -7.31610
C         -3.45317       -2.61018       -6.65636
N         -1.32066       -2.55740       -4.86196
C         -0.19617       -2.98584       -4.31160
O          0.10202       -4.30475       -4.58629
C          1.20750       -4.79514       -3.84081
N          0.62136       -2.27073       -3.55101
H          0.62952       -0.90649        0.05011
H          0.45346        0.76688        0.61356
H          1.99283        0.21523       -0.07312
H         -0.66781        0.50600       -1.56550
H          0.70671        1.60140       -1.71053
H          1.77770       -0.90153       -2.20733
H         -2.80290        0.24590       -4.84877
H         -5.35274       -0.08799       -5.23684
H         -5.85969       -1.39217       -6.32290
H         -5.23147       -1.76807       -4.70870
H         -2.53838       -0.21456       -7.72602
H         -4.24714       -0.46282       -8.12623
H         -3.77337        0.82280       -7.00650
H         -2.46764       -2.71686       -7.12343
H         -3.54445       -3.35374       -5.85702
H         -4.19294       -2.87302       -7.42224
H          2.13298       -4.27704       -4.11456
H          1.02321       -4.72730       -2.76261
H          1.33381       -5.85349       -4.08863
