45

C          1.83676       -0.18051       -0.28626
C          1.49925        1.22490        0.17685
C          1.45039        2.29382       -0.91849
C          0.57972        2.05366       -2.16857
C         -0.96790        2.11771       -2.06619
C         -1.57281        0.87506       -1.39803
C         -3.04851        0.98820       -1.00801
C         -3.45871        2.31527       -0.34439
C         -3.14737        2.41644        1.19607
C         -1.70308        2.07490        1.58765
C         -1.27892        2.37198        3.01824
C         -1.78843        3.71831        3.44419
O         -1.06138        4.56265        3.96473
C         -3.26588        3.92720        3.25716
C         -3.58957        3.77719        1.77732
C         -2.97623        3.46829       -1.24401
C         -1.47821        3.46509       -1.53173
H          1.17871       -0.52026       -1.08950
H          1.71715       -0.88006        0.54907
H          2.87299       -0.24022       -0.62913
H          0.55923        1.19075        0.71788
H          2.24183        1.53054        0.92523
H          1.17869        3.24944       -0.45593
H          2.48179        2.42978       -1.27089
H          0.87324        2.82900       -2.89080
H          0.86855        1.10570       -2.63652
H         -1.32564        2.07456       -3.10695
H         -1.46615        0.02602       -2.08723
H         -0.99906        0.58323       -0.52488
H         -3.32799        0.14111       -0.37050
H         -3.64018        0.87597       -1.92764
H         -4.55812        2.34640       -0.39627
H         -3.77419        1.65392        1.68286
H         -1.53770        1.00564        1.42636
H         -1.02121        2.62666        0.94660
H         -0.18443        2.36113        3.08478
H         -1.66530        1.61860        3.71081
H         -3.53773        4.92625        3.61101
H         -3.79952        3.19008        3.86622
H         -3.09008        4.59400        1.24632
H         -4.66885        3.90346        1.63190
H         -3.27725        4.44175       -0.84608
H         -3.50089        3.38576       -2.20686
H         -0.93608        3.79254       -0.64454
H         -1.27208        4.23799       -2.28460
