25

C          1.02455       -0.19270        0.09598
C          0.31158        0.30605       -0.92223
C         -1.17921        0.49346       -0.89510
C         -1.60933        1.96248       -0.99072
C         -1.20993        2.68725       -2.28270
C         -1.76959        2.08271       -3.57468
C         -3.29937        2.05885       -3.67725
C         -3.96519        3.43102       -3.63282
O         -3.54517        4.23840       -4.72324
H          0.55766       -0.49393        1.02840
H          2.10070       -0.31167        0.01382
H          0.83189        0.57931       -1.83766
H         -1.62356       -0.08883       -1.70968
H         -1.59122        0.07668        0.03283
H         -2.69712        2.01718       -0.86474
H         -1.18129        2.51336       -0.14299
H         -1.52351        3.73479       -2.20427
H         -0.11659        2.71689       -2.35974
H         -1.35946        2.64196       -4.42428
H         -1.39636        1.05871       -3.69202
H         -3.55562        1.58147       -4.63153
H         -3.71852        1.42746       -2.88637
H         -5.05062        3.31321       -3.71158
H         -3.76067        3.96070       -2.69777
H         -2.61221        4.46967       -4.57960
