20

C          1.05579        0.09578       -0.14690
C          0.36330        0.99012       -1.14092
O         -0.53329        0.57603       -1.87133
C          0.76306        2.42021       -1.20205
C          2.07484        2.82597       -0.91716
C          2.39627        4.17801       -0.97576
O          3.66460        4.56284       -0.65061
C          1.43691        5.11773       -1.33394
O          1.75526        6.44088       -1.46821
C          0.13446        4.71268       -1.59949
O         -0.81792        5.63328       -1.92676
C         -0.21075        3.36860       -1.54858
H          0.54207       -0.87021       -0.11617
H          1.00090        0.53709        0.85234
H          2.09401       -0.07678       -0.43798
H          2.84931        2.11176       -0.65628
H          3.59060        5.41641       -0.18515
H          2.65217        6.46368       -1.85312
H         -0.36956        6.50022       -1.87713
H         -1.22965        3.06169       -1.77301
