50

C          0.74594        0.00872        0.25746
C          0.30611       -0.88736        1.36948
C         -0.06504       -0.45290        2.58468
C         -0.53037       -1.31485        3.69777
O         -0.87339       -0.86408        4.78098
O         -0.55389       -2.64951        3.33195
C         -1.15529       -3.52175        4.25730
C         -0.33980       -4.49826        4.87071
C          1.17035       -4.55752        4.64702
C          1.92831       -4.53833        5.98538
C          1.59787       -5.79494        3.82296
C          1.10752       -5.80545        2.36829
C          1.64710       -4.66792        1.49658
C          3.16214       -4.65532        1.27884
C          3.72451       -5.86606        0.53299
C          3.15825       -6.02374       -0.87017
C         -0.96167       -5.45031        5.70671
C         -2.34662       -5.41730        5.93958
N         -2.96398       -6.44062        6.79543
O         -2.23877       -7.35157        7.21730
O         -4.17478       -6.33541        7.03159
C         -3.14706       -4.44039        5.34410
C         -2.54459       -3.50653        4.49118
N         -3.41899       -2.55365        3.81740
O         -4.34614       -2.07073        4.48114
O         -3.20885       -2.32879        2.61800
H          0.57179        1.06521        0.48224
H          0.19451       -0.23793       -0.65557
H          1.81284       -0.13487        0.06082
H          0.28211       -1.94522        1.12541
H         -0.06309        0.60609        2.82333
H          1.49743       -3.65350        4.12353
H          1.76722       -5.45223        6.56720
H          3.00659       -4.44899        5.81241
H          1.61721       -3.68739        6.60147
H          2.69146       -5.87644        3.82896
H          1.23213       -6.70859        4.30960
H          1.37227       -6.76823        1.91628
H          0.01184       -5.76442        2.35540
H          1.13552       -4.69517        0.52778
H          1.37247       -3.71132        1.94375
H          3.41756       -3.74809        0.71614
H          3.67470       -4.56196        2.24305
H          4.81209       -5.74723        0.45671
H          3.55170       -6.78363        1.10520
H          3.28253       -5.10335       -1.44988
H          3.67803       -6.82937       -1.39800
H          2.09418       -6.27675       -0.84681
H         -0.35744       -6.22887        6.17297
H         -4.22269       -4.41657        5.51453
