23

C          1.00202        0.01417       -0.16197
C          0.29264        0.73594        0.71495
C         -1.20104        0.65673        0.85556
C         -1.65207        0.11592        2.21715
C         -1.27624        0.97692        3.42961
C         -1.83114        2.40676        3.42883
C         -3.35225        2.51776        3.37074
C         -4.00299        1.98232        4.62001
O         -4.67417        2.67399        5.37984
H          0.52984       -0.69311       -0.83679
H          2.08119        0.11883       -0.22303
H          0.81883        1.43759        1.35874
H         -1.62743        1.64985        0.67710
H         -1.61536        0.00529        0.07550
H         -2.73882       -0.02649        2.19525
H         -1.22353       -0.88443        2.36241
H         -1.61214        0.45955        4.33620
H         -0.18418        1.03094        3.51348
H         -1.47228        2.90926        4.33628
H         -1.40501        2.96170        2.58512
H         -3.63212        3.57320        3.27379
H         -3.77020        1.99142        2.50820
H         -3.87030        0.90448        4.81185
