28

O          1.43839       -0.02589        0.54141
C          2.32934        0.37315       -0.21747
N          2.63211        1.69447       -0.15280
C          3.62245        2.48843       -0.75337
C          3.56086        3.84649       -0.36796
C          4.45052        4.79928       -0.86538
C          5.44305        4.41045       -1.74769
C          5.53059        3.07303       -2.13014
C          4.62183        2.09701       -1.65490
C          4.77998        0.76044       -2.29100
O          5.79710        0.49977       -2.93046
N          3.69422       -0.08561       -2.27751
C          3.62216       -1.12829       -3.28090
C          2.35001       -1.85765       -2.91821
C          2.40903       -1.87545       -1.39313
C          3.18511       -0.59356       -1.01613
H          1.99749        2.16264        0.48475
H          2.79569        4.19013        0.32688
H          4.35967        5.84065       -0.56694
H          6.13776        5.14066       -2.15488
H          6.30479        2.79603       -2.84636
H          3.60681       -0.69362       -4.28465
H          4.49874       -1.78130       -3.18724
H          2.29210       -2.85671       -3.35763
H          1.47709       -1.28107       -3.24862
H          2.97057       -2.75594       -1.05936
H          1.40385       -1.94611       -0.96658
H          4.03726       -0.86254       -0.37754
