15

C          4.28458       -0.02010        0.06517
C          2.78491       -0.00208        0.02198
C          2.07267       -1.20881        0.00251
C          0.67659       -1.20673       -0.03269
C         -0.01162        0.00435       -0.04728
Br        -1.90154        0.00944       -0.09428
C          0.68303        1.21184       -0.02662
C          2.07946        1.20780        0.00877
H          4.62866       -0.49745        0.98825
H          4.68047       -0.57018       -0.79461
H          4.69964        0.99265        0.03393
H          2.60377       -2.15825        0.01483
H          0.13913       -2.15089       -0.04787
H          0.15005        2.15868       -0.03722
H          2.61170        2.15633        0.02579
