27

O          1.18559        0.08677       -0.17030
S          2.60358        0.01325        0.08325
O          3.50472       -0.61831       -0.86624
N          3.10659        1.60259        0.24063
C          4.10007        2.07167        1.15431
C          5.26801        1.35704        1.42634
C          6.13634        1.80347        2.42697
C          5.86801        2.98649        3.11931
C          4.74593        3.75015        2.79487
Cl         4.48238        5.21165        3.67863
C          3.86691        3.30429        1.80326
Cl         2.44313        4.21688        1.39109
C          2.79761       -0.84992        1.62704
C          3.06192       -2.22514        1.55395
C          3.32453       -2.95124        2.71387
C          3.34760       -2.30163        3.94591
C          3.06384       -0.93657        4.02376
C          2.75812       -0.21117        2.86795
H          2.32230        2.24090        0.08225
H          5.50010        0.43352        0.90024
H          7.02036        1.22070        2.67963
H          6.54128        3.31281        3.90943
H          3.06401       -2.73601        0.59201
H          3.52045       -4.01915        2.65322
H          3.57873       -2.86331        4.84818
H          3.08347       -0.43878        4.99081
H          2.51399        0.84131        2.95990
