42

C          1.29846        0.13556        0.25394
C          0.46603        1.39880        0.46171
C          0.83000        2.47607       -0.58495
C          0.31856        2.20542       -1.98474
O         -0.52531        2.89934       -2.53720
O          0.94270        1.10842       -2.51192
O          0.36206        0.86758       -3.83142
C          0.81391       -0.41993       -4.27932
C          2.34534       -0.47074       -4.31479
C          0.24017       -1.53373       -3.39868
C          0.26770       -0.58195       -5.70197
C         -1.06527        1.16798        0.48752
C         -1.68410        0.15672        1.49459
C         -1.17865        0.39297        2.92429
C         -3.21564        0.36931        1.47790
C         -1.42611       -1.30445        1.08536
H          0.84441       -0.52529       -0.48568
H          1.40114       -0.42180        1.18900
H          2.31440        0.37167       -0.08032
H          0.76358        1.81494        1.43321
H          0.40485        3.43739       -0.26787
H          1.91429        2.63209       -0.63654
H          2.77262       -0.39318       -3.30862
H          2.70618       -1.40436       -4.75829
H          2.74772        0.37046       -4.89017
H         -0.84207       -1.41813       -3.27294
H          0.44026       -2.52361       -3.82290
H          0.67732       -1.51490       -2.39771
H         -0.82755       -0.53422       -5.70605
H          0.61634        0.23108       -6.34872
H          0.57301       -1.53489       -6.14695
H         -1.51986        2.15095        0.68144
H         -1.40349        0.88460       -0.51798
H         -1.38319        1.41853        3.25087
H         -1.67039       -0.28536        3.63118
H         -0.10117        0.22164        3.00886
H         -3.62467        0.20671        0.47392
H         -3.72225       -0.32330        2.15966
H         -3.48007        1.38704        1.78630
H         -1.61285       -1.45628        0.01631
H         -0.40478       -1.62475        1.30135
H         -2.08352       -1.98952        1.63339
