59

C          0.69267        0.01342       -0.30756
C          0.11119       -1.11804        0.48592
O         -0.66073       -0.97573        1.42224
O          0.59702       -2.30882        0.03846
C          0.16262       -3.47034        0.73349
C          0.40535       -3.57470        2.23613
O         -0.54786       -3.48252        3.02568
C          1.80485       -3.87311        2.81220
O          1.57597       -3.98696        4.25329
C          2.40314       -5.22297        2.43729
C          3.75313       -5.18555        3.16334
C          4.20209       -3.70607        3.13100
C          4.85215       -3.14700        4.41971
C          6.09291       -4.00591        4.72077
C          7.05118       -3.35573        5.69078
C          7.44006       -1.94970        5.23463
C          8.58521       -1.44736        5.73947
C          8.32527       -1.04030        7.17494
O          9.25159       -0.90929        7.96438
C          6.89231       -0.75650        7.56955
C          5.89739       -0.75112        6.64715
C          6.23237       -0.99038        5.16787
C          6.57135        0.43644        4.63876
C          5.20627       -1.65298        4.16484
C          3.94196       -0.80421        3.88861
O          4.23063        0.21997        2.93025
C          2.71912       -1.56782        3.38290
C          2.98779       -2.87776        2.60702
C          3.34294       -2.55641        1.13516
H          0.32961        0.96294        0.09595
H          0.38525       -0.06830       -1.35206
H          1.78274        0.01086       -0.22951
H         -0.91382       -3.59378        0.55655
H          0.63589       -4.33658        0.26024
H          0.67209       -3.64050        4.42294
H          1.80302       -6.06885        2.78955
H          2.54013       -5.33646        1.35719
H          4.48087       -5.83980        2.67048
H          3.63812       -5.54182        4.19322
H          4.99886       -3.68167        2.37168
H          4.15350       -3.21561        5.26400
H          6.63831       -4.22855        3.79532
H          5.77565       -4.97240        5.13255
H          7.94456       -3.98373        5.79018
H          6.57713       -3.33756        6.68029
H          9.05766       -0.57736        5.28089
H          6.73853       -0.54463        8.62023
H          4.88400       -0.50286        6.94433
H          5.70347        1.10353        4.72603
H          7.36514        0.93505        5.20678
H          6.88496        0.41395        3.59058
H          5.76054       -1.66146        3.21098
H          3.63828       -0.28025        4.80207
H          4.57247       -0.19713        2.12271
H          2.09661       -0.90821        2.76251
H          2.10630       -1.77102        4.26702
H          4.35997       -2.15372        1.04775
H          3.29887       -3.43868        0.48859
H          2.70855       -1.78577        0.71444
