17

N          0.93598       -0.07660        0.00579
C          2.19695       -0.07660        0.00579
C          3.71695       -0.07660        0.00579
C          4.41421       -0.48424        1.07531
C          5.88106       -0.46416        1.12748
C          6.55873       -1.54333        1.70761
C          7.95309       -1.53891        1.79878
C          8.68122       -0.45036        1.32287
C          8.01662        0.63645        0.75927
C          6.62277        0.63214        0.66581
H          4.18127        0.28545       -0.90413
H          3.90675       -0.86161        1.96069
H          6.00940       -2.40201        2.08736
H          8.47053       -2.38486        2.24425
H          9.76573       -0.44599        1.39723
H          8.58235        1.49185        0.39867
H          6.12687        1.50217        0.24207
