43

C          0.88774        0.16770       -0.21981
C          0.41433       -1.00258       -1.06927
C          0.91726       -2.35801       -0.56138
C          0.42393       -2.77246        0.84338
C         -1.11564       -2.86986        0.95062
C         -1.77291       -3.90919        0.05337
C          1.09143       -4.09166        1.30333
C          2.61626       -4.03336        1.48955
C          3.12264       -2.95951        2.45937
C          2.61399       -3.09797        3.89818
C          3.06501       -4.37129        4.62274
C          4.58344       -4.53489        4.77460
C          5.29621       -3.40663        5.52515
N          4.84432       -3.29559        6.90694
H          0.43791        0.14868        0.77694
H          0.60694        1.11418       -0.69257
H          1.97692        0.15664       -0.10801
H         -0.67780       -0.99209       -1.14164
H          0.79145       -0.86032       -2.08956
H          0.64123       -3.12882       -1.29088
H          2.01236       -2.31901       -0.56921
H          0.71609       -1.99094        1.55322
H         -1.38216       -3.09607        1.99111
H         -1.56135       -1.89102        0.73993
H         -1.43754       -4.92096        0.29855
H         -2.85925       -3.88222        0.18992
H         -1.56920       -3.71977       -1.00390
H          0.63499       -4.41939        2.24530
H          0.87747       -4.88229        0.57330
H          2.96117       -5.01902        1.82372
H          3.09683       -3.87716        0.51708
H          4.21850       -2.97242        2.45346
H          2.84741       -1.96721        2.08421
H          2.93821       -2.22030        4.46920
H          1.51845       -3.06097        3.90636
H          2.59693       -4.39062        5.61419
H          2.67204       -5.24973        4.09752
H          4.77717       -5.48409        5.29094
H          5.04066       -4.63864        3.78347
H          6.37237       -3.61122        5.52874
H          5.15815       -2.44900        5.01303
H          5.33645       -2.52709        7.36203
H          3.85636       -3.05065        6.93095
