22

C          0.98635        0.01703        0.05433
C          0.53455        0.29021       -1.35204
N          0.59938        1.58769       -1.72771
C          0.23562        1.88394       -2.98873
C          0.31198        3.32412       -3.41894
Cl         1.57247        3.57222       -4.65247
N         -0.20865        0.98005       -3.88103
C         -0.24499       -0.30193       -3.50436
C         -0.66660       -1.25017       -4.42751
C         -0.72628       -2.61089       -4.11749
C         -0.35581       -3.04431       -2.85215
C          0.07122       -2.11314       -1.90740
C          0.12851       -0.73165       -2.22230
H          0.36419       -0.73885        0.54183
H          0.91408        0.92659        0.66082
H          2.02946       -0.31303        0.05273
H         -0.64706        3.64244       -3.83789
H          0.55208        3.97006       -2.56910
H         -0.95311       -0.91954       -5.42413
H         -1.05818       -3.32406       -4.86761
H         -0.39679       -4.10131       -2.60184
H          0.36150       -2.47396       -0.92379
