15

C          1.14837       -0.15274       -0.22396
C          0.70113       -0.62596        1.15003
C          1.11257        0.31256        2.29090
C          0.55397        1.73363        2.20302
C         -0.96603        1.73363        2.20302
N         -2.22700        1.73363        2.20302
H          0.65355        0.78046       -0.50865
H          0.89504       -0.90383       -0.97934
H          2.23080        0.00459       -0.25224
H         -0.38506       -0.77033        1.14815
H          1.14239       -1.61214        1.33958
H          0.79180       -0.14097        3.23767
H          2.20733        0.36925        2.32814
H          0.90061        2.31397        3.06572
H          0.91535        2.24388        1.30434
