38

C          1.20128        0.02141        0.04254
O          0.49472        1.22705       -0.21149
C          0.78173        2.17589        0.74212
N          2.05360        2.42280        1.03482
C          2.22382        3.44370        1.86910
O          3.49351        3.79020        2.27795
C          4.48031        2.82770        1.92757
N          1.26250        4.20730        2.37571
C          0.03683        3.81135        2.04440
C         -1.07284        4.53092        2.63804
C         -1.15756        5.91283        2.70931
O         -0.29835        6.85246        2.33332
N         -2.38375        6.21010        3.25679
S         -3.01750        7.76482        3.49440
O         -4.30022        7.72374        2.80602
O         -2.96791        7.94570        4.93999
C         -2.02397        9.02282        2.72185
F         -0.80240        9.21344        3.29673
F         -1.82101        8.83298        1.38664
C         -3.02754        5.06533        3.68328
C         -4.22474        4.85252        4.37960
F         -4.99550        5.86765        4.78362
C         -4.62026        3.54966        4.67830
C         -3.84412        2.46727        4.28366
C         -2.65307        2.67423        3.58146
C         -2.22908        3.98924        3.28055
N         -0.27085        2.81709        1.22189
H          0.84909       -0.72681       -0.67433
H          0.98868       -0.35360        1.04996
H          2.27894        0.14450       -0.10688
H          4.22798        1.83176        2.30988
H          4.63611        2.80365        0.84391
H          5.42298        3.12958        2.39465
H          0.55382        6.42005        2.11094
H         -2.57824        9.95926        2.83418
H         -5.54467        3.39260        5.22698
H         -4.15971        1.45505        4.52505
H         -2.04941        1.81998        3.28272
