43

C         -2.55651        0.77750        0.10610
C         -1.24407        0.07945        0.12712
N         -0.18676        0.74598        0.59876
N          0.84318       -0.08494        0.38823
C          2.17808        0.38915        0.66754
C          0.47497       -1.32740       -0.06651
O          1.41688       -2.27127       -0.18311
C          1.05767       -3.61368        0.08954
C          0.29455       -3.91850        1.38122
O         -0.85105       -4.37226        1.35963
C          0.95604       -3.69142        2.70179
C          0.32283       -4.18982        3.85028
C          0.89116       -4.00300        5.11161
C          2.09202       -3.31010        5.23559
C          2.72935       -2.81142        4.10076
C          2.16823       -3.00620        2.83466
C         -0.88883       -1.22860       -0.33878
C         -1.71995       -2.21936       -1.01363
O         -1.27955       -3.03024       -1.82245
C         -3.16827       -2.25174       -0.73229
C         -3.60157       -2.65015        0.54038
C         -4.96750       -2.70742        0.82397
C         -5.89392       -2.37021       -0.16155
Cl        -7.57567       -2.42971        0.19451
C         -5.47028       -1.97914       -1.43095
C         -4.10404       -1.92499       -1.72134
Cl        -3.63954       -1.38117       -3.29310
H         -2.45679        1.82409        0.41417
H         -2.98205        0.77514       -0.90093
H         -3.25940        0.30129        0.79524
H          2.39006        1.22132       -0.00711
H          2.21720        0.71977        1.70698
H          2.90644       -0.40738        0.50534
H          0.52157       -4.04781       -0.75781
H          1.99039       -4.19046        0.13433
H         -0.61642       -4.73305        3.76919
H          0.39442       -4.39756        5.99410
H          2.53231       -3.15880        6.21864
H          3.66552       -2.26891        4.20262
H          2.69535       -2.60540        1.97598
H         -2.88501       -2.93027        1.30959
H         -5.30012       -3.02183        1.81069
H         -6.20180       -1.71425       -2.19033
