17

C          2.52033       -1.12251        0.02801
C          1.24092       -0.34009        0.02357
C          1.25089        1.05740        0.05565
C          0.05115        1.76655        0.02197
C         -1.16544        1.08284       -0.02347
C         -1.19978       -0.31250        0.00813
N         -2.41282       -0.99217       -0.16362
C          0.01007       -1.01319       -0.02096
H          2.57556       -1.74753        0.92506
H          2.57676       -1.76040       -0.85990
H          3.39463       -0.46332        0.02241
H          2.19085        1.60316        0.08567
H          0.06221        2.85308        0.01634
H         -2.08900        1.65188       -0.08269
H         -2.39365       -1.94741        0.17884
H         -3.21735       -0.47711        0.17938
H         -0.00032       -2.09900       -0.07802
