18

O          0.98887        0.01028       -0.12551
S          2.43050        0.15400       -0.01912
O          3.02653        0.58305        1.23309
F          2.98449       -1.31889       -0.24607
C          3.03741        1.12763       -1.38956
F          2.60827        0.62097       -2.59084
F          2.59164        2.42260       -1.36061
C          4.55649        1.09196       -1.33310
F          5.01572        1.74337       -0.24390
F          5.00162       -0.18317       -1.27293
O          5.11596        1.69792       -2.49361
C          6.54533        1.75743       -2.51761
F          6.99122        2.10090       -1.28043
Cl         7.21402        0.15346       -2.95448
C          7.00084        2.83369       -3.54973
F          6.60030        2.48772       -4.80679
F          6.38317        4.02100       -3.28236
Cl         8.76080        3.11226       -3.56377
