40

C          2.18157       -0.40241       -0.15480
C          1.41481       -0.51136       -1.46539
C          1.05763       -1.94628       -1.86566
C          0.18236       -2.72619       -0.88143
C         -1.27588       -2.81362       -1.29241
O         -1.68604       -3.73623       -1.98956
N         -2.16548       -1.86811       -0.88032
C         -1.93077       -0.60585       -0.20307
C         -2.30703        0.58304       -1.10610
N         -3.53629        1.21029       -0.65504
C         -3.73871        2.45268       -0.13769
O         -4.84637        2.71846        0.32633
C         -2.62520        3.48232       -0.15014
C         -1.74899        3.46256        1.10488
C         -0.38738        2.77355        0.97037
C          0.52322        3.39254       -0.08086
H          1.62484       -0.81658        0.68949
H          2.38339        0.64774        0.07632
H          3.14276       -0.92098       -0.22175
H          0.51630        0.10648       -1.42257
H          2.03497       -0.07650       -2.25895
H          0.58263       -1.92267       -2.85415
H          2.00046       -2.49443       -1.99093
H          0.53862       -3.76562       -0.86143
H          0.26307       -2.38331        0.15172
H         -3.11234       -2.07469       -1.17916
H         -2.53431       -0.61882        0.71121
H         -0.88883       -0.53655        0.10484
H         -1.50185        1.31537       -1.12837
H         -2.47534        0.26106       -2.13970
H         -4.37558        0.64139       -0.63255
H         -2.06360        3.41822       -1.08401
H         -3.13269        4.45617       -0.19356
H         -1.56073        4.50157        1.40504
H         -2.29293        2.99675        1.93581
H          0.12452        2.82998        1.93898
H         -0.51798        1.70911        0.76843
H          0.75947        4.43076        0.17125
H          1.46523        2.83878       -0.13512
H          0.08028        3.37288       -1.07972
