37

C          0.83972       -0.00870       -0.03007
C          0.73514        1.39756        0.54077
N          1.21974        2.42301       -0.37163
C          0.28296        3.25031       -1.11708
C         -0.00637        4.57705       -0.43270
C          2.57404        2.62269       -0.52970
N          3.37472        1.57603       -0.50129
C          4.64125        1.86829       -0.73402
Cl         5.70196        0.53285       -0.86262
N          5.19105        3.05850       -0.88860
C          4.33390        4.06119       -0.82633
N          4.80705        5.36167       -0.89892
C          6.24461        5.60591       -0.83074
C          6.67850        6.48131       -1.99801
C          3.89722        6.44132       -0.52230
C          3.09662        6.91305       -1.72748
N          3.02027        3.86243       -0.70957
H          0.46866       -0.05671       -1.05800
H          0.25794       -0.70533        0.58240
H          1.87240       -0.37034       -0.02388
H         -0.31893        1.59191        0.77644
H          1.26724        1.45517        1.49872
H          0.64709        3.42542       -2.13747
H         -0.66480        2.70907       -1.23260
H          0.86603        5.23518       -0.43866
H         -0.81015        5.10159       -0.96010
H         -0.31185        4.43491        0.60796
H          6.49651        6.09717        0.11733
H          6.84405        4.68955       -0.86404
H          6.23263        7.47896       -1.93449
H          7.76622        6.59904       -2.00204
H          6.37624        6.03708       -2.95239
H          3.22794        6.14653        0.29610
H          4.46532        7.29639       -0.13401
H          2.50704        6.10254       -2.16629
H          2.40999        7.71355       -1.43577
H          3.75811        7.29993       -2.50912
