28

C         -1.59676        1.61743       -0.94838
C         -0.99213        0.34548       -0.43690
C          0.42689        0.36430       -0.40589
C          1.17296       -0.74913       -0.03175
Cl         2.88972       -0.67062       -0.01985
C          0.52675       -1.91724        0.32237
C         -0.86744       -1.93023        0.36125
C         -1.64894       -0.80237        0.02482
O         -2.95705       -1.08016        0.25795
C         -4.08155       -0.25983       -0.00064
C         -4.58533        0.45401        1.25754
C         -3.87909        1.76165        1.60500
C         -4.14180        2.91468        0.66850
O         -3.67379        4.03679        0.79000
O         -4.93123        2.63307       -0.38067
H         -1.62136        2.36923       -0.15703
H         -0.98395        2.02295       -1.76331
H         -2.57730        1.49347       -1.39314
H          0.95625        1.27386       -0.68906
H          1.08700       -2.80865        0.58657
H         -1.36856       -2.84766        0.66984
H         -3.98599        0.35880       -0.88639
H         -4.87302       -0.97227       -0.26995
H         -5.65755        0.65532        1.14233
H         -4.47804       -0.22298        2.11452
H         -4.23336        2.08721        2.59050
H         -2.80024        1.60169        1.67738
H         -4.96106        3.47251       -0.88788
