28

O          0.96268        0.13641        0.24910
C          2.17036        0.04528        0.05383
N          2.96695        1.15885        0.04380
C          4.32084        1.19281       -0.16080
O          4.92762        2.25900       -0.10462
N          4.91713       -0.03335       -0.41788
C          6.34781       -0.05040       -0.68776
C          7.18273       -0.62953        0.44216
C          8.44375       -1.02196       -0.29486
O          9.21159       -1.98548        0.40139
C          7.92628       -1.46714       -1.66571
C          7.78158       -2.97528       -1.85793
O          7.22046       -3.24493       -3.14358
O          6.61005       -0.88006       -1.83313
C          4.18766       -1.21075       -0.40662
C          2.86874       -1.24879       -0.17755
I          1.81818       -3.00033       -0.14214
H          2.51193        2.04391        0.20746
H          6.70618        0.95525       -0.93883
H          7.36164        0.08512        1.25144
H          6.71484       -1.51267        0.89399
H          9.07364       -0.13383       -0.42641
H          8.62620       -2.65111        0.80205
H          8.55655       -1.06085       -2.46529
H          8.74685       -3.48482       -1.79337
H          7.10101       -3.40378       -1.11534
H          6.53203       -2.56652       -3.28858
H          4.74702       -2.12259       -0.59796
