22

Cl         1.16259        0.16040        0.04784
C          2.88124        0.08559        0.04486
C          3.62465        1.26736        0.04334
C          5.01998        1.20956        0.04096
C          5.65807       -0.02968        0.04015
C          4.91165       -1.20334        0.04164
C          3.51907       -1.15376        0.04400
O          5.50363       -2.43745        0.04088
C          6.87986       -2.45732        0.03880
C          7.52381       -3.70250        0.03819
Cl         6.55377       -5.14466        0.04000
C          8.92823       -3.76636        0.03615
Cl         9.72677       -5.31358        0.03540
C          9.68386       -2.57733        0.03473
Cl        11.42377       -2.64341        0.03225
C          9.02975       -1.33282        0.03533
Cl         9.92372        0.15775        0.03363
C          7.62896       -1.27844        0.03736
O          7.02631       -0.04097        0.03788
H          3.12444        2.23268        0.04401
H          5.60403        2.12631        0.03978
H          2.94150       -2.07378        0.04518
