29

C          0.97240        0.24235        0.16045
C          0.39841        0.59096       -1.20187
C          0.89007       -0.27648       -2.37628
S          0.32628       -1.96898       -2.32092
O         -1.02703       -1.96061       -1.79243
O          0.60109       -2.63073       -3.57808
C          1.30805       -2.83793       -1.10725
C          2.80513       -2.68521       -1.25340
S          0.48116        0.53578       -3.93630
O          1.02749        1.88349       -3.82544
O          0.92685       -0.26445       -5.05818
C         -1.29004        0.76180       -4.05257
C         -2.10172       -0.46446       -4.39805
H          0.49066       -0.64198        0.58038
H          0.78384        1.06149        0.86250
H          2.05317        0.08436        0.11580
H         -0.69502        0.56949       -1.13784
H          0.66697        1.63729       -1.38924
H          1.98403       -0.30372       -2.39342
H          0.97957       -2.53666       -0.11277
H          1.04122       -3.89588       -1.21644
H          3.12775       -1.65027       -1.12137
H          3.31289       -3.28189       -0.48785
H          3.14813       -3.02725       -2.23382
H         -1.64432        1.23582       -3.13375
H         -1.41979        1.49562       -4.85795
H         -2.36736       -1.02785       -3.50378
H         -3.05052       -0.16313       -4.85556
H         -1.58607       -1.13182       -5.09241
