23

Cl        -2.07384       -0.23046       -0.50776
C         -0.37504       -0.10426       -0.25589
C          0.37984       -1.26072       -0.06762
C          1.75479       -1.16097        0.13685
C          2.36205        0.09559        0.16193
C          1.60353        1.25753       -0.01768
O          2.32858        2.43019        0.02095
C          1.65359        3.62567       -0.00411
C          0.96527        4.05783        1.13455
C          0.31937        5.29509        1.12385
C          0.38689        6.10305       -0.01209
Cl        -0.40739        7.62938       -0.01828
C          1.09755        5.69095       -1.13852
C          1.73835        4.45164       -1.13073
Cl         2.62368        3.96993       -2.53123
C          0.22810        1.15481       -0.24143
H         -0.09459       -2.23847       -0.08429
H          2.35322       -2.05782        0.27436
H          3.43637        0.17030        0.31779
H          0.92978        3.43342        2.02373
H         -0.22769        5.62619        2.00340
H          1.15599        6.33243       -2.01356
H         -0.38738        2.03198       -0.40903
