27

C          0.94343       -0.08494        0.25847
C          0.42579        1.33998        0.40555
C          1.16327        2.35526       -0.46675
C          0.70748        2.41030       -1.90551
O          0.48228        3.46032       -2.49684
O          0.65914        1.17372       -2.45963
C          0.17951        1.10697       -3.80783
C         -1.31727        0.93387       -3.79817
C         -2.15777        2.05272       -3.88239
C         -3.54335        1.90501       -3.82125
C         -4.10293        0.63759       -3.67529
C         -3.27758       -0.48240       -3.58748
C         -1.89030       -0.33581       -3.64308
H          0.62198       -0.53697       -0.68366
H          0.55226       -0.71096        1.06697
H          2.03642       -0.11839        0.30348
H         -0.65082        1.36183        0.20062
H          0.55904        1.63474        1.45377
H          0.97144        3.35154       -0.04740
H          2.24670        2.19959       -0.44579
H          0.48811        1.97557       -4.40228
H          0.64995        0.23607       -4.27931
H         -1.73324        3.05071       -3.98125
H         -4.18353        2.78131       -3.87957
H         -5.18240        0.52409       -3.62344
H         -3.71513       -1.47003       -3.46771
H         -1.25830       -1.21688       -3.55680
