31

C          1.00237       -0.05624       -0.02053
C          0.50305       -1.47619        0.21054
C          1.07766       -2.10761        1.47562
N          0.63246       -1.43433        2.67931
C         -0.15918       -1.90826        3.68635
O         -0.24930       -1.24673        4.72224
C         -0.83626       -3.27744        3.54240
O         -1.56767       -3.53677        2.34762
C         -2.64707       -2.73755        2.16770
O         -2.99404       -1.81362        2.88328
C         -3.35120       -3.10994        0.91930
C         -4.02589       -2.10632        0.21387
C         -4.71790       -2.42044       -0.95627
C         -4.74996       -3.73767       -1.41452
C         -4.08862       -4.74295       -0.70751
C         -3.38560       -4.43200        0.45834
H          0.65958        0.62051        0.76820
H          0.62597        0.32487       -0.97523
H          2.09626       -0.02368       -0.05135
H         -0.59134       -1.46949        0.25167
H          0.79225       -2.09045       -0.65017
H          0.81702       -3.16785        1.51586
H          2.17142       -2.04405        1.46654
H          1.03220       -0.52819        2.89501
H         -0.04837       -4.03590        3.61465
H         -1.49624       -3.43533        4.40458
H         -4.01246       -1.07964        0.57490
H         -5.23756       -1.63928       -1.50579
H         -5.29818       -3.98230       -2.32144
H         -4.12786       -5.77029       -1.06183
H         -2.88671       -5.22593        1.00812
