32

O          1.45160        2.34224       -0.09814
C          1.16419        1.15874       -0.11589
C         -0.21916        0.69508       -0.03143
C         -1.38067        1.44584       -0.03855
C         -2.59536        0.75741        0.02962
C         -2.62333       -0.64863        0.10856
C         -1.43690       -1.38771        0.12728
C         -0.24694       -0.68639        0.05686
C          1.11723       -1.20825        0.03935
O          1.37566       -2.39302        0.16297
C          2.08551       -0.05605       -0.17888
C          2.85956       -0.11988       -1.47653
C          2.73093       -1.16049       -2.39322
C          3.47792       -1.13119       -3.56796
C          4.34150       -0.06321       -3.81805
C          5.10403        0.01310       -4.99701
C          5.94952        1.09786       -5.21683
C          6.03528        2.10473       -4.26198
C          5.27742        2.01941       -3.08954
C          4.42792        0.94857       -2.84474
N          3.71597        0.90843       -1.70270
H         -1.34626        2.52956       -0.10278
H         -3.53134        1.31351        0.01814
H         -3.58132       -1.16402        0.15401
H         -1.44753       -2.47193        0.18656
H          2.76448       -0.02072        0.68076
H          2.07333       -2.00722       -2.22370
H          3.37914       -1.94526       -4.28151
H          5.03966       -0.77081       -5.74784
H          6.53678        1.15727       -6.12938
H          6.68829        2.95843       -4.42296
H          5.34623        2.81152       -2.34745
