23

C          0.96995        0.02694        0.09149
C         -0.33391        0.02694        0.09149
C         -1.85391        0.02694        0.09149
C         -2.36445       -1.38598       -0.19160
O         -2.31676        0.42790        1.37641
C         -2.38025        1.01961       -0.97340
C         -2.14576        2.53584       -0.72793
C         -0.67493        2.95811       -0.69982
C         -2.85565        3.33869       -1.82600
H          2.03559        0.03384        0.09058
H         -2.00680       -2.09318        0.56613
H         -3.45935       -1.41923       -0.15551
H         -2.03766       -1.74640       -1.17319
H         -1.82505       -0.09938        2.02947
H         -1.97297        0.74927       -1.95756
H         -3.46878        0.88186       -1.04087
H         -2.59828        2.81547        0.23125
H         -0.11968        2.53401       -1.54346
H         -0.57414        4.04803       -0.75282
H         -0.19347        2.65436        0.23341
H         -3.92816        3.12139       -1.83920
H         -2.73750        4.41535       -1.66066
H         -2.44604        3.10349       -2.81472
