19

C          0.99407        0.03703       -0.11967
C          0.52571       -1.35193       -0.44759
C          1.28651       -2.44367        0.00082
C          0.88485       -3.74851       -0.27658
Cl         1.83420       -5.07139        0.28081
C         -0.27918       -3.98966       -1.00122
C         -1.06639       -2.91891       -1.45030
C         -2.31851       -3.22520       -2.22380
C         -0.66127       -1.60801       -1.15549
O         -1.46922       -0.59035       -1.58389
H          0.41307        0.44119        0.71496
H          0.89610        0.69799       -0.98683
H          2.05270        0.04445        0.16200
H          2.19983       -2.27657        0.56795
H         -0.58110       -5.01193       -1.21519
H         -2.06890       -3.79205       -3.12698
H         -3.00221       -3.81838       -1.60766
H         -2.85365       -2.32501       -2.53903
H         -1.18208        0.24593       -1.18850
