36

O          0.97790       -0.41285        0.10934
C          2.19507       -0.24302        0.02040
C          3.07423       -1.22357       -0.74150
N          3.84350       -2.00068        0.22166
C          4.76802       -1.39424        0.88515
C          5.48527       -2.18820        1.92541
C          5.92862       -3.47756        1.61433
C          6.59881       -4.23144        2.57794
C          6.80890       -3.70557        3.85337
C          6.34851       -2.42665        4.17019
C          5.68569       -1.66390        3.20757
C          5.16990        0.02904        0.67811
C          6.55471        0.28678        0.64045
C          7.02341        1.59027        0.54108
Cl         8.71408        1.89541        0.50404
C          6.12702        2.64660        0.48009
C          4.75034        2.39532        0.50403
C          4.23790        1.08556        0.57998
N          2.81986        0.88335        0.56544
C          1.92091        1.90061        1.14472
C          1.18223        2.78710        0.13919
F          0.32320        2.11591       -0.64913
F          0.47296        3.73689        0.79814
F          2.05109        3.44207       -0.66774
H          3.69770       -0.71198       -1.48314
H          2.42064       -1.90173       -1.30118
H          5.75217       -3.89411        0.62542
H          6.94839       -5.23227        2.33707
H          7.32185       -4.29963        4.60613
H          6.49731       -2.03004        5.17153
H          5.31121       -0.67979        3.47440
H          7.27147       -0.53059        0.69137
H          6.48631        3.67011        0.39762
H          4.09887        3.26000        0.41222
H          1.17213        1.37876        1.75411
H          2.47925        2.52489        1.85186
