44

C          0.84336        0.93084       -2.03877
O          0.50294       -0.17208       -1.20324
C          1.00468       -1.34205       -1.69571
C          0.22338       -2.02974       -2.63493
C          0.66897       -3.23162       -3.18140
C          1.89669       -3.75209       -2.78992
C          2.64523       -3.09876       -1.80902
C          2.19402       -1.89852       -1.22150
C          3.05608       -1.33555       -0.14968
O          4.22657       -1.68977       -0.07746
N          2.62888       -0.35351        0.76040
S          1.34496       -0.37329        1.83815
O          1.93937       -0.65838        3.12900
O          0.60452        0.85419        1.64074
C          0.29506       -1.74383        1.46013
C         -0.99958       -1.50532        0.99762
C         -1.77888       -2.57388        0.55371
C         -1.29495       -3.89405        0.59539
C         -2.17159       -4.93555       -0.02759
O         -3.31597       -4.62480       -0.36859
N         -1.77111       -6.22452       -0.29564
C         -0.55951       -6.91133       -0.02781
C         -0.09312       -8.00466       -0.95380
C          0.66378       -6.71592       -0.87920
C         -0.04538       -4.11801        1.18839
C          0.75343       -3.04974        1.61992
H          0.34717        1.81732       -1.63328
H          0.48978        0.78260       -3.06451
H          1.92384        1.10485       -2.02593
H         -0.74300       -1.63035       -2.93437
H          0.05846       -3.75954       -3.91041
H          2.26334       -4.67803       -3.22776
H          3.59240       -3.54119       -1.50043
H          3.44060       -0.12068        1.33625
H         -1.38599       -0.49098        0.91190
H         -2.76210       -2.35889        0.13576
H         -2.51281       -6.74978       -0.74831
H         -0.43196       -7.13749        1.02844
H          0.35924       -8.88393       -0.50954
H         -0.65565       -8.20356       -1.85826
H          0.59394       -6.04871       -1.72813
H          1.62911       -6.71573       -0.38720
H          0.35423       -5.11181        1.32622
H          1.73405       -3.24643        2.04867
