40

N          1.31002        0.01223       -0.30827
S          0.53055        0.13949       -1.79163
O          1.05938       -0.91990       -2.60975
O         -0.87927        0.21904       -1.47799
C          1.06114        1.73707       -2.33597
C          0.37455        2.84217       -1.80592
C          0.72868        4.13784       -2.19920
C          1.73483        4.37445       -3.11930
C          2.40376        3.26147       -3.64332
C          2.08441        1.94665       -3.25970
Cl         3.05528        0.70816       -3.96186
N          2.15164        5.63079       -3.56609
C          1.62926        6.73770       -3.15590
C          2.12671        8.06706       -3.69429
S          3.90131        8.32365       -3.36056
C          3.93109        8.23727       -1.53930
C          3.14433        9.33530       -0.87046
C          2.02881        9.03225       -0.07665
C          1.29237       10.05001        0.53178
C          1.67708       11.37987        0.37499
C          2.80081       11.69357       -0.38605
C          3.53043       10.67801       -1.00564
N          0.58679        6.80756       -2.22923
S         -0.08917        5.49885       -1.48575
O         -1.47459        5.45303       -1.89279
O          0.29304        5.56282       -0.09285
H          0.61629       -0.08350        0.43564
H          1.97708       -0.76128       -0.33722
H         -0.42615        2.70064       -1.07957
H          3.20384        3.43309       -4.36385
H          1.98988        8.06014       -4.78058
H          1.54609        8.90227       -3.29250
H          3.58928        7.24749       -1.21895
H          4.97667        8.31449       -1.21906
H          1.73160        7.99902        0.09144
H          0.42691        9.80394        1.14245
H          1.11006       12.17148        0.85822
H          3.11345       12.72929       -0.49365
H          4.40873       10.94038       -1.59337
H          0.13805        7.69041       -1.99686
