30

C          0.93476        0.11332       -0.14202
S         -0.13665        0.61603       -1.50779
C          0.65474        2.07286       -1.96981
N          1.85236        2.19865       -2.48209
C          2.02394        3.55303       -2.63640
C          3.12565        4.26930       -3.11689
C          3.08723        5.67735       -3.12184
Cl         4.57175        6.42420       -3.60920
C          1.93312        6.36711       -2.70153
O          1.70126        7.72786       -2.60758
C          2.51577        8.63139       -3.23674
C          2.48521        8.74436       -4.63116
C          3.31711        9.66449       -5.26665
C          4.14722       10.49261       -4.50853
C          4.13423       10.42016       -3.11057
Cl         5.16905       11.50289       -2.24609
C          3.30654        9.49559       -2.46393
Cl         3.24522        9.38844       -0.73420
C          0.81846        5.64289       -2.22720
C          0.90349        4.25090       -2.20436
N          0.03424        3.27355       -1.79124
H          0.63411       -0.87835        0.20641
H          0.83234        0.81704        0.68932
H          1.98233        0.07180       -0.45214
H          4.00581        3.72677       -3.44685
H          1.83859        8.09964       -5.22074
H          3.32776        9.73150       -6.35213
H          4.80263       11.19903       -5.01328
H         -0.06642        6.16027       -1.86763
H         -0.88404        3.40072       -1.39642
