15

C          0.87806       -0.02000       -0.04972
C          0.41258        1.43856       -0.09361
C          0.91848        2.10333       -1.37931
O         -1.01877        1.47094       -0.14139
C          0.89790        2.25834        1.11938
Cl         0.44021        1.54538        2.69290
H          0.58158       -0.54967       -0.96280
H          0.41213       -0.56804        0.77580
H          1.96614       -0.09131        0.04824
H          0.54539        1.57757       -2.26581
H          0.55163        3.13345       -1.45532
H          2.01247        2.11988       -1.42177
H         -1.31542        0.85922       -0.83711
H          1.98866        2.35074        1.11954
H          0.46284        3.26286        1.10333
