22

Cl         3.42519       -0.14565        0.27486
C          1.74518        0.18737        0.11873
C          0.83990       -0.86150        0.02410
C         -0.52272       -0.58746       -0.11029
Cl        -1.59048       -1.94647       -0.21085
C         -0.98385        0.74109       -0.15617
Cl        -2.68076        1.06689       -0.35517
C         -0.06664        1.81188       -0.05338
C         -0.47728        3.23122       -0.08216
C         -1.14261        3.78010        1.03129
C         -1.54232        5.11922        1.04816
C         -1.27396        5.94046       -0.04226
C         -0.61156        5.42277       -1.15378
C         -0.21985        4.07911       -1.17744
Cl         0.57732        3.50931       -2.60520
C          1.30240        1.50863        0.08892
H          1.19246       -1.88980        0.05250
H         -1.36435        3.15866        1.89755
H         -2.06609        5.51782        1.91408
H         -1.58380        6.98283       -0.02970
H         -0.40647        6.06967       -2.00309
H          2.02969        2.31598        0.16708
