17

S          0.27117       -0.30834       -0.71836
C          0.35005        1.33879       -1.48088
C          0.81972        2.44909       -0.54039
S          2.63049        2.67686       -0.42313
C          3.13364        1.45115        0.83742
C          3.01563        1.90820        2.29175
S          1.37687        1.64611        3.03100
H          1.56793       -0.61200       -0.86630
H          0.95919        1.28925       -2.38958
H         -0.67408        1.56974       -1.79356
H          0.46604        3.39441       -0.96936
H          0.35145        2.38507        0.44279
H          2.66921        0.47842        0.66974
H          4.20210        1.30033        0.64145
H          3.71040        1.31116        2.89239
H          3.30554        2.95709        2.41438
H          0.80584        2.75644        2.54442
