20

C          1.07332       -0.10210        0.00760
C          0.42244        0.41198       -1.24923
O         -0.55283       -0.14613       -1.74650
C          0.95307        1.65749       -1.86886
C          0.06972        2.46188       -2.59816
C          0.51768        3.64396       -3.18661
C          1.85586        4.01819       -3.06621
C          2.76215        3.21332       -2.35699
C          4.21318        3.62173       -2.26464
F          4.79117        3.77196       -3.48786
F          4.37880        4.80955       -1.62129
F          4.98624        2.72255       -1.59423
C          2.29724        2.03243       -1.75015
H          0.52637       -0.98303        0.35840
H          1.02355        0.66172        0.78855
H          2.10676       -0.40070       -0.17884
H         -0.97464        2.17167       -2.70348
H         -0.17697        4.26950       -3.74290
H          2.19591        4.94042       -3.53697
H          3.00280        1.40463       -1.21033
