54

O          1.23570       -0.51805       -0.06318
C          2.26950        0.13827       -0.04261
N          3.19646       -0.02398       -1.04731
C          4.36806       -0.71433       -0.80374
O          4.70319       -1.67332       -1.49116
C          5.21521       -0.30041        0.31490
C          5.28618       -1.08198        1.46179
F          4.56488       -2.20556        1.57159
C          6.08224       -0.68522        2.53448
C          6.82703        0.49364        2.44938
C          6.76661        1.27282        1.29207
C          5.95797        0.87153        0.23088
F          5.88854        1.64742       -0.85975
N          2.62932        1.08418        0.88834
C          2.03487        1.31640        2.14330
C          2.47312        2.42853        2.87120
C          1.94703        2.70375        4.13813
C          0.97765        1.86619        4.70212
C          0.38093        2.16951        6.05558
O          1.37887        2.30013        7.07349
N          1.79829        1.02162        7.47734
C          2.61469        1.05798        8.48645
C          2.99258        2.25137        9.28620
C          4.33580        2.49556        9.59362
C          4.67936        3.59321       10.38803
C          3.68142        4.43629       10.87767
Cl         4.10791        5.78329       11.85898
C          2.34094        4.19215       10.58267
C          1.99505        3.09569        9.78941
C          3.20365       -0.24644        8.91981
C          3.09333       -1.49515        8.07398
C          4.41236       -0.79334        8.19349
C          0.54889        0.75006        3.97417
C          1.07574        0.47557        2.70758
H          2.73608       -0.54554       -1.78680
H          6.11229       -1.29700        3.43203
H          7.45185        0.80333        3.28435
H          7.34416        2.18962        1.21190
H          3.31123        1.76063        0.57448
H          3.22868        3.09693        2.46773
H          2.30152        3.57217        4.68924
H         -0.15587        3.12298        5.99558
H         -0.35313        1.41173        6.35685
H          5.12027        1.84668        9.21411
H          5.72346        3.78443       10.62225
H          1.56264        4.84526       10.96866
H          0.94786        2.89729        9.57277
H          3.15583       -0.41258        9.99335
H          2.96846       -2.44211        8.58628
H          2.57391       -1.44101        7.12317
H          4.77349       -0.26610        7.31719
H          5.18800       -1.26822        8.78217
H         -0.19534        0.07421        4.39064
H          0.72108       -0.41253        2.19283
