21

C         -3.32726       -0.42628        0.03397
N         -2.10760        0.34012        0.01177
C         -2.00768        1.70639       -0.00243
N         -0.75008        2.10351       -0.01401
C         -0.02777        0.94910       -0.00766
C         -0.83574       -0.15258        0.00598
C         -0.32896       -1.47901        0.01379
O         -1.01453       -2.49477        0.02578
N          1.04737       -1.51436        0.00652
C          1.91225       -0.43555       -0.00466
O          3.12655       -0.64025       -0.00733
N          1.34533        0.83551       -0.01204
C          2.21542        1.99160       -0.02386
H         -3.34775       -1.07485       -0.84531
H         -3.34821       -1.01835        0.95234
H         -4.18440        0.25158        0.01195
H         -2.87167        2.35926       -0.00259
H          1.47803       -2.42517        0.01185
H          2.86609        1.95560        0.85577
H          2.84232        1.95451       -0.92047
H          1.64987        2.92714       -0.01627
