11

Cl         0.89841        0.10624       -0.05539
C          2.70030       -0.01282       -0.06717
Cl         3.06332       -1.54851        0.77291
C          3.28315        0.10222       -1.49534
Cl         2.64140        1.65357       -2.23611
C          4.82767        0.15331       -1.56224
Cl         5.65376       -1.34621       -1.04759
Cl         5.42694        0.45989       -3.23795
H          3.07125        0.79676        0.56915
H          2.90065       -0.70607       -2.12942
H          5.21598        0.96425       -0.93813
