29

C          1.21861        0.13805       -0.30221
C          0.56054       -1.20739       -0.66003
C          0.46557       -1.31776       -2.19034
N          1.43454       -2.25340       -0.14382
C          0.84530       -3.49525        0.13642
C          1.65225       -4.62932        0.28798
C          1.10265       -5.84877        0.68626
C         -0.25676       -5.93718        0.98092
C         -1.07969       -4.80704        0.87769
C         -2.43828       -4.85088        1.22180
C         -3.22457       -3.70253        1.14086
C         -2.66334       -2.50308        0.70205
C         -1.31392       -2.43619        0.33612
C         -0.51779       -3.58167        0.43874
N         -0.78973       -1.20584       -0.09950
H          1.30704        0.25253        0.78560
H          0.62897        0.98385       -0.67391
H          2.22874        0.21540       -0.72043
H         -0.14631       -0.50997       -2.60862
H          1.45743       -1.26223       -2.65479
H          0.01252       -2.26600       -2.50105
H          2.29249       -2.35053       -0.67507
H          2.72098       -4.56843        0.10308
H          1.73933       -6.72321        0.78940
H         -0.66544       -6.88893        1.31309
H         -2.88962       -5.77718        1.57018
H         -4.27439       -3.74049        1.41790
H         -3.28754       -1.61652        0.63014
H         -0.88792       -0.53304        0.65483
