60

C          0.96425        0.12253       -0.01397
C          0.19743        1.31515        0.60139
N          0.65642        2.50484       -0.14399
C          0.46924        3.81216        0.48201
C          1.12720        4.00928        1.85205
C          2.65634        4.00314        1.81519
C          3.26689        5.22049        1.10984
C          2.93590        6.58098        1.74936
C          3.24984        6.69623        3.24884
N          4.64925        6.37082        3.48423
C          5.09562        6.45038        4.88071
C          4.48897        5.30166        5.70216
C          6.67077        6.47663        4.89926
C          7.17679        7.71279        4.11738
C          7.20047        6.59427        6.34228
C          7.29364        5.21538        4.26120
C         -1.36493        1.07787        0.63096
C         -1.68887       -0.26812        1.32194
C         -2.10745        2.16199        1.44367
C         -1.96309        1.04839       -0.78899
H          0.68624       -0.05197       -1.05828
H          0.79657       -0.80073        0.54809
H          2.04732        0.29591        0.01487
H          0.55287        1.36890        1.63654
H          1.64692        2.40270       -0.36691
H          0.86449        4.55932       -0.21560
H         -0.58717        4.06461        0.54804
H          0.76884        4.95362        2.27658
H          0.78780        3.24253        2.55601
H          3.02953        3.94801        2.84435
H          3.01645        3.09106        1.32528
H          4.35558        5.09043        1.07713
H          2.95278        5.24264        0.06052
H          3.49214        7.35672        1.20715
H          1.87528        6.81132        1.59363
H          3.04291        7.72365        3.57128
H          2.57969        6.03791        3.81013
H          4.85187        5.43795        3.12757
H          4.74518        7.39755        5.31372
H          4.71845        4.32262        5.26847
H          4.84707        5.30855        6.73501
H          3.39863        5.38736        5.75860
H          6.75903        8.63727        4.53171
H          8.26891        7.79100        4.16395
H          6.90400        7.66665        3.05731
H          7.00619        5.68730        6.92344
H          8.28604        6.74776        6.35074
H          6.74166        7.44085        6.86413
H          6.98319        4.30374        4.78140
H          7.02016        5.11127        3.20574
H          8.38821        5.25654        4.30218
H         -1.22382       -0.32155        2.31274
H         -2.76965       -0.39587        1.45639
H         -1.34937       -1.12610        0.73384
H         -2.27200        3.07326        0.86415
H         -3.10838        1.82573        1.73924
H         -1.56753        2.41401        2.36225
H         -1.75625        1.97710       -1.33171
H         -1.56580        0.21739       -1.38006
H         -3.05215        0.92937       -0.75206
