41

C          1.10651        0.22859        0.36830
O          1.57724        0.75708        1.61156
C          1.63816       -0.22783        2.56233
C          0.53792       -0.36600        3.41238
C          0.51116       -1.37377        4.37618
N         -0.59542       -1.66016        5.20916
C         -1.91004       -1.25488        5.21715
O         -2.64279       -1.54308        6.15860
C         -2.48961       -0.52484        4.07956
C         -2.96689        0.76738        4.32836
C         -3.39100        1.57893        3.26667
C         -3.81486        2.89831        3.48646
C         -4.17899        3.71494        2.41597
C         -4.13393        3.22034        1.11549
C         -3.73714        1.90253        0.88256
C         -3.36862        1.06588        1.94711
C         -2.96132       -0.26049        1.72667
C         -2.53317       -1.05618        2.78742
O         -2.12965       -2.32327        2.46913
C          1.66813       -2.16246        4.56699
O          1.59262       -3.09125        5.58013
C          2.83112       -3.60495        6.06150
C          2.78162       -1.99826        3.73432
C          2.76270       -1.03480        2.72522
Cl         4.15056       -0.86791        1.71489
H          0.41988        0.95791       -0.07209
H          0.57194       -0.72432        0.46856
H          1.95412        0.10141       -0.31181
H         -0.26622        0.34678        3.28930
H         -0.37943       -2.29303        5.97708
H         -2.95989        1.15094        5.34685
H         -3.84985        3.30630        4.49461
H         -4.49317        4.73992        2.59793
H         -4.40601        3.86098        0.28082
H         -3.70985        1.53541       -0.14143
H         -2.95622       -0.67603        0.72169
H         -1.87666       -2.79699        3.28165
H          3.26404       -4.30768        5.34287
H          3.53451       -2.79975        6.30078
H          2.62810       -4.15390        6.98585
H          3.66530       -2.61791        3.84182
