20

C          0.97384        0.07021       -0.04636
O          0.42664        1.03753        0.84556
C          0.83729        0.90087        2.14640
C         -0.15783        1.15459        3.11967
C          0.12036        1.06355        4.48819
C          1.40974        0.73818        4.82956
N          1.98511        0.58276        6.08846
C          3.33808        0.26783        5.91796
S          4.43555       -0.00370        7.11679
N          3.58806        0.22720        4.54102
C          2.39916        0.51338        3.87126
C          2.14943        0.59012        2.52067
H          0.42517        0.14086       -0.99054
H          0.84375       -0.94602        0.34226
H          2.02711        0.27598       -0.25917
H         -1.16232        1.41619        2.79280
H         -0.64522        1.24651        5.23130
H          1.52107        0.68472        6.97815
H          4.48357        0.02867        4.12165
H          2.94106        0.43749        1.80076
