38

C         -0.15404        0.13999       -1.11069
C         -0.70164        1.01901        0.01320
C         -0.54259        0.32737        1.36494
C          0.42445        0.97015        2.38068
C          1.96376        0.56064        2.39376
C          2.43142        0.69201        3.88507
C          2.08183       -0.95758        2.08200
C          3.05332        1.32465        1.53231
C          3.06074        1.08923        0.02079
C          3.23338        2.82457        1.79179
C          0.05836        2.45010        2.54712
C         -0.16822        3.24002        1.26662
C         -0.14291        2.43176       -0.00895
O          0.18304        2.97668       -1.06749
H         -0.16168        0.65515       -2.07570
H         -0.75609       -0.76974       -1.21087
H          0.87059       -0.17938       -0.91412
H         -1.77688        1.13729       -0.18081
H         -1.53998        0.36462        1.83391
H         -0.36667       -0.74725        1.25301
H          0.06517        0.52060        3.32329
H          1.86431        0.02181        4.54184
H          3.48864        0.42471        3.99718
H          2.30206        1.70531        4.27414
H          1.78240       -1.19598        1.05833
H          3.11202       -1.30995        2.20861
H          1.45128       -1.55063        2.75483
H          4.00983        0.88467        1.85731
H          2.22326        1.57202       -0.47475
H          3.96829        1.51929       -0.42121
H          3.06959        0.02803       -0.23687
H          3.04732        3.11362        2.82667
H          4.26984        3.10987        1.57074
H          2.60889        3.43098        1.13507
H          0.75513        2.97456        3.20707
H         -0.89521        2.48254        3.09751
H          0.59095        4.02393        1.18725
H         -1.13447        3.75523        1.31441
