32

C          1.19496        0.08512       -0.39270
C          1.04179       -1.06360       -1.36969
O          1.58345       -2.27901       -0.82515
C          2.93012       -2.42855       -0.92658
O          3.69506       -1.58241       -1.37369
C          3.35853       -3.82282       -0.56184
S          3.21567       -4.31105        1.15608
P          3.15070       -2.66318        2.46102
S          4.38478       -1.18309        2.18898
O          1.60800       -2.15933        2.55484
C          0.55324       -3.08239        2.78158
C         -0.27281       -3.24062        1.52175
O          3.32096       -3.35819        3.92293
C          3.35209       -2.63096        5.13809
C          2.01142       -2.73456        5.83705
H          0.80422       -0.18901        0.59146
H          0.66454        0.97153       -0.75147
H          2.24845        0.34684       -0.25849
H         -0.02243       -1.24682       -1.55425
H          1.49747       -0.83339       -2.34037
H          2.76757       -4.52187       -1.16491
H          4.39885       -3.95208       -0.87532
H          0.92980       -4.05124        3.12334
H         -0.08131       -2.67599        3.57496
H          0.30548       -3.73241        0.73684
H         -1.16251       -3.84733        1.70638
H         -0.58047       -2.26433        1.13459
H          4.11778       -3.09952        5.76616
H          3.63880       -1.58564        5.00005
H          1.55260       -3.71545        5.67667
H          2.11557       -2.56165        6.91206
H          1.32298       -1.98012        5.44462
