81

C          1.35914        0.08137        0.25870
C          0.64913        0.91091       -0.77597
O         -0.09944        0.40284       -1.60952
C          0.87860        2.38372       -0.79639
C          2.16532        2.88408       -0.56174
C          2.45052        4.25728       -0.66903
N          3.81332        4.60640       -0.47658
C          4.32433        5.88091       -0.17748
N          5.31406        6.25572       -0.97295
C          5.65285        7.53721       -0.92587
N          6.57523        8.03458       -1.85886
C          7.30760        7.23254       -2.76245
C          6.61230        6.47659       -3.71887
C          7.25961        5.55329       -4.55575
C          6.37538        4.82100       -5.52252
C          6.94154        4.17303       -6.75855
O          5.16838        4.74224       -5.28671
C          8.64790        5.34785       -4.41340
N          9.30146        4.33098       -5.15067
C          9.36081        6.11512       -3.44264
C          8.69792        7.06294       -2.64717
C          9.44996        7.87120       -1.65600
O          8.90714        8.79215       -1.05144
C         10.86474        7.58130       -1.39757
C         11.54145        8.27614       -0.38578
C         12.88626        8.00770       -0.13499
C         13.55593        7.04972       -0.89394
C         12.88064        6.35908       -1.90267
C         11.52816        6.62539       -2.15452
C         10.81744        5.89008       -3.21690
O         11.44125        5.07583       -3.89255
N          5.17546        8.39040       -0.03454
C          4.25285        7.89330        0.79077
C          3.64109        8.83733        1.73885
C          3.31580        8.45876        3.05237
C          2.73437        9.36832        3.94261
C          2.45105       10.66862        3.52986
C          2.75974       11.06637        2.23280
C          3.35801       10.16215        1.35196
N          3.78340        6.64406        0.76502
C          1.40896        5.11761       -1.07845
C          0.09018        4.63728       -1.20440
C         -0.18222        3.25318       -1.11870
N         -1.50923        2.76392       -1.12688
C         -1.00994        5.61003       -1.48247
O         -2.13300        5.24169       -1.81006
C         -0.73761        7.05349       -1.35364
C         -1.78129        7.98020       -1.27533
C         -1.49253        9.34551       -1.19957
C         -0.16733        9.78565       -1.21634
C          0.87203        8.86128       -1.31235
C          0.57687        7.49616       -1.36890
C          1.64623        6.50928       -1.53032
O          2.66159        6.83406       -2.13014
H          0.87186       -0.89694        0.32273
H          1.28537        0.55613        1.24038
H          2.40388       -0.06768       -0.02282
H          2.97932        2.20423       -0.31614
H          4.33525        4.37287       -1.32386
H          7.12695        8.75316       -1.38294
H          5.53057        6.60957       -3.79966
H          7.21289        3.13761       -6.53605
H          6.17368        4.17155       -7.53930
H          7.79302        4.72729       -7.15770
H         10.32305        4.35522       -5.00955
H          8.96645        3.39822       -4.91789
H         11.02379        9.02647        0.21019
H         13.41004        8.54710        0.65120
H         14.60577        6.84021       -0.70090
H         13.41458        5.61324       -2.48904
H          3.52957        7.44772        3.39467
H          2.50345        9.06040        4.95931
H          1.99270       11.37268        4.21970
H          2.53984       12.07891        1.90438
H          3.59847       10.49381        0.34263
H         -2.15803        3.40239       -1.60371
H         -1.56747        1.81310       -1.50771
H         -2.81625        7.64454       -1.28257
H         -2.30324       10.06842       -1.14145
H          0.05517       10.84924       -1.16978
H          1.90428        9.20181       -1.35368
