19

O          1.07575       -0.23740        0.15229
C          2.28045       -0.11045        0.03649
O          3.05412        0.60870        0.87648
C          3.06228       -0.68508       -1.07883
C          4.14479       -1.52177       -0.75964
C          4.90425       -2.09958       -1.77506
C          4.58000       -1.85334       -3.10635
C          3.49688       -1.03047       -3.42425
C          2.72258       -0.42469       -2.41771
C          1.54699        0.43150       -2.81665
O          1.95031        1.36753       -3.81347
H          3.98747        0.68869        0.60016
H          4.38182       -1.74928        0.27789
H          5.73677       -2.75537       -1.53100
H          5.16122       -2.31303       -3.90285
H          3.24848       -0.86211       -4.47240
H          0.75496       -0.19934       -3.23292
H          1.12702        1.00932       -1.99118
H          2.63111        1.93109       -3.40881
