53

C          1.77904       -0.82587        0.12913
C          0.45393       -1.62083       -0.03295
C         -0.42582       -1.56344        1.24569
C         -0.71522       -0.12884        1.69441
C         -0.87805        0.84054        0.53333
O         -0.99746        2.05008        0.71312
C         -0.95866        0.28901       -0.84610
C         -0.41382       -0.91647       -1.09356
C         -0.77479       -1.65736       -2.29265
C         -0.82016       -3.00303       -2.28339
C         -0.43333       -3.78803       -1.04284
C          0.82278       -3.09652       -0.46862
C          1.55946       -3.90083        0.61588
C          1.69875       -5.38265        0.28049
C          0.33095       -6.04959       -0.00476
C         -0.52719       -5.98355        1.27598
C         -0.34722       -5.31858       -1.20105
C          0.42984       -5.84474       -2.40986
C          0.69567       -7.32083       -2.09080
C          0.46769       -7.50219       -0.57352
C          1.47640       -8.43750        0.07851
C          0.67408       -9.20130        1.10435
C         -0.69247       -9.19100        0.50394
O         -1.61748       -9.91897        0.83429
O         -0.78648       -8.21051       -0.43863
H          1.66307        0.10905        0.68420
H          2.19362       -0.55766       -0.85025
H          2.54363       -1.39331        0.66379
H         -1.39662       -2.04238        1.04953
H          0.00997       -2.11123        2.08429
H         -1.63420       -0.11176        2.29137
H          0.10475        0.22350        2.32901
H         -1.56471        0.84903       -1.54669
H         -1.11089       -1.10586       -3.16812
H         -1.16371       -3.53224       -3.16768
H         -1.26253       -3.65161       -0.33739
H          1.54806       -3.01742       -1.29704
H          1.07290       -3.80469        1.58795
H          2.56981       -3.49931        0.75344
H          2.19295       -5.86953        1.12948
H          2.38529       -5.49331       -0.56744
H         -1.48163       -6.50530        1.16982
H          0.01003       -6.42679        2.12195
H         -0.77540       -4.95633        1.55922
H         -1.37927       -5.68902       -1.29991
H         -0.13282       -5.74159       -3.34310
H          1.37977       -5.31626       -2.54602
H         -0.00336       -7.94548       -2.66226
H          1.70966       -7.59012       -2.40232
H          1.85936       -9.15486       -0.65872
H          2.34953       -7.94905        0.51545
H          1.04301      -10.22383        1.21814
H          0.64969       -8.69707        2.07358
