22

C          1.34133       -0.10050        0.22906
O          0.38311       -1.14192        0.36675
C          0.72872       -2.36697       -0.13137
C         -0.29876       -3.31100       -0.13382
C         -0.08690       -4.60322       -0.62817
C          1.16446       -4.97125       -1.11954
N          1.45471       -6.24069       -1.65410
C          0.63588       -7.33653       -1.69920
N          1.21443       -8.37026       -2.37903
O         -0.47892       -7.47803       -1.22099
C          2.19811       -4.02705       -1.10484
C          1.98374       -2.73265       -0.61307
H          0.88601        0.82373        0.59780
H          1.60847        0.05666       -0.82152
H          2.22944       -0.30050        0.83723
H         -1.28108       -3.04018        0.24613
H         -0.92312       -5.29545       -0.61747
H          2.40516       -6.40684       -1.94764
H          0.57783       -9.15058       -2.49374
H          1.72191       -8.13307       -3.21867
H          3.18708       -4.28191       -1.47654
H          2.81777       -2.03928       -0.61854
