37

O          2.12962        0.03613        0.04667
C          0.76855       -0.02428        0.02761
C          0.06648        1.17312        0.02971
C         -1.33089        1.15417        0.01009
C         -2.03988       -0.05522       -0.01182
N         -3.45046        0.02322       -0.03800
N         -4.01433       -1.09015       -0.07748
C         -5.41497       -0.96243       -0.15779
C         -6.21427       -1.80337        0.62132
C         -7.61189       -1.74515        0.53713
C         -8.24992       -0.85060       -0.33123
N         -9.66326       -0.85516       -0.34857
N        -10.15033       -0.01066       -1.12844
C        -11.55854        0.00512       -1.08777
C        -12.25821        0.15412       -2.29124
C        -13.65286        0.24108       -2.30439
C        -14.36443        0.18501       -1.10761
C        -13.68359        0.04220        0.09981
C        -12.28883       -0.04203        0.10893
C         -7.44330       -0.01472       -1.11833
C         -6.04639       -0.07407       -1.03708
C         -1.30280       -1.25207       -0.01419
C          0.09657       -1.24045        0.00585
H          2.48201       -0.86894        0.04215
H          0.60100        2.11870        0.04585
H         -1.87617        2.09497        0.01040
H         -5.74646       -2.51159        1.30067
H         -8.21138       -2.40905        1.15603
H        -11.70804        0.20816       -3.22731
H        -14.18065        0.35930       -3.24718
H        -15.44903        0.25871       -1.11516
H        -14.23484        0.00497        1.03572
H        -11.76646       -0.13474        1.05756
H         -7.89297        0.69332       -1.80966
H         -5.44936        0.57747       -1.67035
H         -1.81545       -2.21042       -0.03394
H          0.63401       -2.18323        0.00292
