32

C          0.92253       -0.00606       -0.02650
C          0.61939        0.20330       -1.49895
O          1.12300       -0.89722       -2.27135
C          2.43491       -0.81701       -2.62274
O          3.17795        0.12178       -2.36741
C          2.88696       -2.05406       -3.36636
C          1.97005       -2.80177       -4.01789
C          2.27508       -3.98476       -4.83869
C          3.12120       -5.01759       -4.37780
C          3.47339       -6.08593       -5.20907
C          2.95272       -6.10250       -6.48328
C          2.09653       -5.12294       -6.92631
C          1.72790       -4.06032       -6.12814
O          1.69996       -5.32247       -8.21185
C          2.44253       -6.51545       -8.54120
O          3.20816       -7.03786       -7.43575
N          4.23285       -2.35084       -3.31292
C          4.99635       -2.10669       -4.32043
O          4.61932       -1.62403       -5.51607
H          0.52666       -0.96830        0.31447
H          0.48215        0.79173        0.57822
H          2.00194       -0.02430        0.15438
H         -0.46482        0.23012       -1.64977
H          1.01738        1.15881       -1.85983
H          0.92179       -2.51075       -4.02407
H          3.53592       -4.97699       -3.37149
H          4.14726       -6.86341       -4.86787
H          1.06061       -3.29808       -6.51586
H          1.73926       -7.28606       -8.87565
H          3.12839       -6.28299       -9.36458
H          6.07922       -2.30018       -4.29623
H          3.65972       -1.52614       -5.58012
