27

C          1.25172       -0.00380        0.06819
C          0.57694        1.36892        0.20284
C          1.13838        2.28880       -0.89277
C         -0.94977        1.34560        0.19586
C         -1.66138        2.55427        0.25985
C         -3.05949        2.57752        0.24298
C         -3.79526        1.38792        0.18735
C         -5.19971        1.39250        0.16300
C         -5.91609        0.19569        0.12182
C         -5.23760       -1.01912        0.10910
C         -3.84190       -1.03792        0.12754
C         -3.10495        0.15785        0.16008
C         -1.69614        0.15519        0.16390
H          0.98375       -0.49163       -0.87618
H          0.97108       -0.66915        0.89164
H          2.34276        0.09483        0.09219
H          0.88034        1.77626        1.17689
H          0.78854        1.98392       -1.88536
H          0.84356        3.33196       -0.74025
H          2.23389        2.26809       -0.89713
H         -1.13401        3.50346        0.32238
H         -3.56868        3.53806        0.27731
H         -5.74611        2.33288        0.17520
H         -7.00244        0.21315        0.10171
H         -5.79282       -1.95291        0.08271
H         -3.32993       -1.99763        0.11584
H         -1.19072       -0.80703        0.13890
