18

C         -2.09680       -0.06085       -0.00733
C         -0.72310       -0.68421        0.03397
C         -0.73143       -2.19369        0.11090
C          0.44081        0.01641       -0.00065
C          1.80365       -0.63809        0.01190
C          0.56859        1.50384       -0.06005
O          1.62310        2.10577       -0.18639
O         -0.57539        2.18847        0.06584
H         -2.28806        0.51761        0.90213
H         -2.21435        0.57402       -0.89130
H         -2.88839       -0.81495       -0.07001
H         -0.25579       -2.62777       -0.77489
H         -0.21200       -2.53836        1.01129
H         -1.74573       -2.60251        0.15891
H          2.36070       -0.37259       -0.89365
H          2.37688       -0.30402        0.88385
H          1.76864       -1.72943        0.05250
H         -0.28730        3.12253        0.01327
