21

C          1.22658        0.17350       -0.11355
C          0.85934        1.52418        0.42795
O          0.79990        2.54531       -0.24399
O          0.64581        1.41878        1.79708
C          0.17505        2.58923        2.40396
C          1.06821        3.22372        3.27604
C          0.66577        4.35730        3.98175
C         -0.62677        4.85305        3.82291
C         -1.51889        4.21534        2.95653
C         -1.13326        3.06754        2.24409
C         -2.16733        2.45065        1.37812
O         -3.20845        2.98560        1.03751
O         -1.91415        1.17856        1.02513
H          0.88243        0.09445       -1.14847
H          0.72725       -0.61396        0.45918
H          2.30902        0.03893       -0.06563
H          2.07507        2.83618        3.40640
H          1.35820        4.85254        4.65841
H         -0.94497        5.73395        4.37589
H         -2.52705        4.61295        2.84836
H         -2.69664        0.93994        0.48416
