28

C          0.60086        0.07742        0.03483
C          0.58243        1.55899       -0.30760
N          1.09794        1.87342       -1.64311
C          0.16541        1.88659       -2.78434
C         -0.15468        3.30380       -3.27710
Cl         0.67800        3.68538       -4.81156
C          2.45707        1.86309       -1.91043
C          3.09222        3.02355       -2.37463
C          4.45241        3.03912       -2.69761
C          5.21022        1.88245       -2.53848
C          6.64665        1.87896       -2.87880
O          7.21026        2.85692       -3.34902
C          4.61222        0.71715       -2.06373
C          3.24403        0.71336       -1.76474
H          0.32177       -0.54864       -0.81819
H         -0.09333       -0.13001        0.85586
H          1.59169       -0.23084        0.38350
H         -0.45520        1.91051       -0.24239
H          1.13524        2.12421        0.45204
H          0.52910        1.23995       -3.59277
H         -0.78157        1.43651       -2.45887
H         -1.22326        3.39545       -3.49146
H          0.11097        4.07426       -2.54642
H          2.52917        3.94609       -2.48345
H          4.90776        3.95331       -3.07119
H          7.19301        0.93961       -2.68737
H          5.18500       -0.19730       -1.93741
H          2.79593       -0.22309       -1.45001
