22

Cl        -2.08136       -0.02649       -0.31394
C         -0.36832       -0.02209       -0.14901
C          0.31421       -1.22673       -0.00360
C          1.69986       -1.22059        0.14168
C          2.39608       -0.00901        0.14832
C          1.72021        1.21449       -0.00486
C          2.46127        2.49603       -0.00093
C          2.38005        3.38361        1.10365
Cl         1.42187        2.95904        2.49615
C          3.08249        4.60102        1.09660
Cl         3.00800        5.73129        2.40490
C          3.88291        4.94628        0.00985
C          3.98417        4.08727       -1.08232
Cl         5.00947        4.59084       -2.38233
C          3.27570        2.87340       -1.10021
Cl         3.38856        1.83965       -2.49875
C          0.32363        1.19000       -0.15841
H         -0.22562       -2.17001       -0.00186
H          2.23941       -2.15829        0.25037
H          3.47841       -0.02855        0.26595
H          4.42950        5.88745        0.01422
H         -0.23080        2.11863       -0.27456
