26

O          1.22856        0.39352        0.61903
C          2.28990        0.11427        0.06642
C          3.29220       -0.80063        0.75833
S          4.11790       -1.93638       -0.39765
N          2.73388        0.61375       -1.14575
C          2.09936        1.55919       -1.97546
C          0.97770        2.29322       -1.59586
C          0.40736        3.22176       -2.47341
C          0.94375        3.42874       -3.75157
C          0.37255        4.34860       -4.64567
C          0.91344        4.53497       -5.91840
C          2.03272        3.80721       -6.31094
C          2.61510        2.89357       -5.43042
C          2.08177        2.69236       -4.14602
C          2.65099        1.77222       -3.24625
H          4.03993       -0.17964        1.26013
H          2.76651       -1.39881        1.50868
H          3.02608       -2.65548       -0.70279
H          3.57626        0.18062       -1.51199
H          0.52420        2.17875       -0.61632
H         -0.46588        3.78121       -2.14466
H         -0.50323        4.92517       -4.35613
H          0.45871        5.24685       -6.60233
H          2.45292        3.94911       -7.30324
H          3.48883        2.33461       -5.75775
H          3.52829        1.20894       -3.55591
