14

C          0.91050        0.04782        0.06502
C          0.49766        1.29250       -0.71814
C          1.05732        1.39843       -2.14286
Br         0.43100       -0.10102       -3.23745
Br         0.42683        3.11071       -2.90357
C          2.57887        1.47456       -2.20569
O          3.32725        1.70604       -1.26496
O          3.11625        1.33336       -3.43809
H          0.51473       -0.86756       -0.38338
H          0.51357        0.10662        1.08424
H          1.99719       -0.04603        0.13980
H         -0.59985        1.32837       -0.74063
H          0.81706        2.16595       -0.13337
H          4.08003        1.45554       -3.30575
