67

O         -0.68636       -3.13384        0.19955
C         -0.45547       -1.93125        0.15831
C          0.93153       -1.43755        0.16350
C          2.01636       -2.28814       -0.07617
C          3.31497       -1.77017       -0.08638
C          3.52588       -0.41690        0.16815
C          2.44032        0.41252        0.43908
C          1.15111       -0.09324        0.41620
C          0.02386        0.80321        0.68089
O          0.16734        1.75520        1.43874
C         -1.28796        0.44086        0.11708
C         -2.28470        1.38550       -0.18900
N         -2.13568        2.79440       -0.25668
C         -0.96331        3.57109       -0.31575
N         -0.01295        3.35519       -1.23536
C          1.08002        4.11710       -1.13077
N          2.10755        3.96683       -2.08188
C          3.27797        4.76094       -2.14218
C          3.45194        5.65368       -3.20724
C          4.48884        6.59743       -3.19156
C          5.33577        6.70560       -2.08537
C          5.18672        5.82608       -1.01362
C          4.20536        4.83404       -1.07662
C          4.33169        3.73488       -0.11477
O          4.12934        2.58569       -0.48119
C          4.92716        3.98271        1.20139
C          4.69405        3.10300        2.26461
C          5.36499        3.28202        3.47237
C          6.27512        4.32991        3.61024
C          6.50208        5.21148        2.54675
C          5.81788        5.04127        1.33756
C          6.06124        5.93877        0.18343
O          6.95057        6.78018        0.22994
N          1.23773        5.05262       -0.20327
C          0.22424        5.20504        0.63867
C          0.44043        6.13753        1.74360
C          0.88282        7.45096        1.50962
C          1.18294        8.30587        2.57205
C          1.05353        7.85612        3.88435
C          0.60308        6.56198        4.13684
C          0.28951        5.71265        3.07419
N         -0.91656        4.52987        0.60095
C         -3.58778        0.89197       -0.40934
C         -3.87509       -0.47719       -0.38916
C         -2.85187       -1.39659       -0.19489
C         -1.55423       -0.93876        0.03656
H          1.85513       -3.34591       -0.26840
H          4.16379       -2.41610       -0.29677
H          4.52891        0.00513        0.14223
H          2.57636        1.46810        0.63876
H         -2.66520        3.22615        0.49892
H          1.72606        3.61608       -2.94752
H          2.76786        5.63837       -4.05251
H          4.61862        7.27224       -4.03513
H          6.11757        7.46269       -2.06950
H          4.00388        2.27194        2.15761
H          5.18887        2.59370        4.29654
H          6.81506        4.45405        4.54645
H          7.22228        6.01848        2.66211
H          1.00655        7.80748        0.48844
H          1.53191        9.31595        2.37383
H          1.31056        8.51260        4.71148
H          0.51084        6.20535        5.15924
H         -0.03873        4.69446        3.28170
H         -4.40213        1.58835       -0.60645
H         -4.89317       -0.82497       -0.54918
H         -3.06458       -2.46394       -0.21745
