28

O          0.85883        0.01769        0.29889
N          2.07679        0.02457        0.07633
O          2.64338        0.73618       -0.76516
C          2.92030       -0.84249        0.88547
C          4.10819       -0.28310        1.42348
C          4.96753       -1.06007        2.21391
C          4.62737       -2.38081        2.44869
C          3.45769       -2.90498        1.90190
C          3.32985       -4.24254        2.26068
C          2.23916       -4.96758        1.81842
C          1.29205       -4.32040        1.01211
C          1.43891       -2.96230        0.65641
C          2.55208       -2.19916        1.10788
C          4.47542       -4.60129        3.08602
C          4.83541       -5.78822        3.69653
C          6.02334       -5.80882        4.43405
C          6.82591       -4.65772        4.55053
C          6.46032       -3.45780        3.93227
C          5.28565       -3.43930        3.20344
H          4.36415        0.75747        1.22812
H          5.87569       -0.63113        2.62565
H          2.11267       -6.01234        2.08242
H          0.42631       -4.87402        0.65297
H          0.67416       -2.50951        0.02756
H          4.22259       -6.67848        3.61072
H          6.33408       -6.72818        4.92603
H          7.74501       -4.70479        5.13097
H          7.08416       -2.57616        4.02650
