15

O          1.13810       -0.55085        0.05483
C          2.18563        0.08377        0.05909
C          2.94490        0.32210        1.30175
C          2.51940       -0.25845        2.50121
C          3.24964       -0.02415        3.66108
O          2.88057       -0.57188        4.85371
C          4.38538        0.77915        3.64230
C          4.79715        1.35383        2.44083
Br         6.33604        2.45195        2.40649
C          4.08514        1.12928        1.26261
H          2.60663        0.50588       -0.86881
H          1.63038       -0.88356        2.51301
H          2.08115       -1.11013        4.72293
H          4.93736        0.94948        4.56272
H          4.41395        1.58221        0.33127
