37

C          0.76042        0.04836        0.15930
C          0.20998        1.03350        1.18657
C          0.91899        2.38445        1.15253
O         -1.23058        1.14153        1.09385
C         -1.77582        1.71288       -0.00556
O         -1.18893        2.24848       -0.92928
C         -3.24211        1.54282        0.04114
C         -3.95322        1.92685        1.19445
C         -5.34843        1.79533        1.22917
C         -6.11516        2.13095        2.41989
N         -6.14436        3.38368        2.89944
N         -7.04565        3.34229        3.90612
C         -7.37854        4.58517        4.56927
C         -7.54301        2.08949        4.14298
C         -8.53447        1.82276        5.19362
F         -8.06570        2.17663        6.41700
F         -9.67051        2.53769        4.99145
F         -8.90197        0.52256        5.27740
C         -6.93402        1.28636        3.20912
Br        -7.12950       -0.56588        2.97413
C         -6.01547        1.32110        0.09478
F         -7.35347        1.22204        0.08332
C         -5.31970        0.93391       -1.04407
C         -3.92873        1.03144       -1.07059
Cl        -3.13040        0.44093       -2.48461
H          0.60885        0.39889       -0.86614
H          0.24671       -0.91530        0.24379
H          1.83274       -0.11490        0.30717
H          0.39171        0.60293        2.17863
H          0.89217        2.84145        0.15905
H          0.44458        3.08648        1.84538
H          1.97256        2.27434        1.42984
H         -3.42357        2.32542        2.05815
H         -6.46309        5.00130        4.99685
H         -7.79888        5.26595        3.82430
H         -8.10895        4.41618        5.36155
H         -5.87388        0.55087       -1.89586
