8

C          0.96192       -0.06980        0.06894
C          0.46544       -1.16424        0.97915
F          0.88800       -0.92772        2.24513
F         -0.88962       -1.15020        1.00800
H          0.59948        0.90343        0.41469
H          0.59785       -0.21893       -0.95151
H          2.05506       -0.03654        0.06263
H          0.80637       -2.15489        0.66743
