48

C         -0.43315       -0.49170       -0.26679
C          0.00465       -0.15960       -1.69087
O          0.88248       -1.15693       -2.16245
P          2.61248       -1.15694       -2.16245
O          2.62519       -0.28128       -3.42899
C          2.73307        0.11163       -0.65604
C          3.34117       -0.42094        0.61594
C          3.32234       -1.77827        0.95267
C          3.89691       -2.21903        2.14880
C          4.46610       -1.30330        3.04084
C          5.06120       -1.68235        4.32526
N          5.02239       -0.89872        5.38226
C          5.79530       -1.42236        6.39453
C          6.01315       -0.81900        7.64712
C          6.86386       -1.43106        8.56936
C          7.48358       -2.63835        8.26041
C          7.26503       -3.26768        7.02948
C          6.41677       -2.63710        6.10579
S          5.96719       -3.12872        4.51722
C          4.44760        0.05976        2.70931
C          3.89665        0.49808        1.51094
N          4.39248       -1.15694       -2.16245
C          5.32749       -0.08467       -2.34993
C          6.60688       -0.78284       -2.76312
C          6.50850       -2.14645       -2.09005
C          5.01990       -2.37610       -2.01682
O          4.46576       -3.44138       -1.80893
H         -1.12548       -1.33981       -0.26720
H         -0.93134        0.36267        0.19960
H          0.40016       -0.80164        0.37061
H         -0.88596       -0.17856       -2.32766
H          0.43127        0.84010       -1.80226
H          3.35155        0.92459       -1.05507
H          1.80088        0.60002       -0.40482
H          2.87116       -2.52089        0.29803
H          3.87167       -3.28270        2.37522
H          5.52915        0.12568        7.87396
H          7.04397       -0.95356        9.52924
H          8.15059       -3.09918        8.98575
H          7.75122       -4.20848        6.79122
H          4.86909        0.79190        3.39693
H          3.89919        1.56285        1.28641
H          5.47449        0.42767       -1.39413
H          4.97894        0.62882       -3.09969
H          7.50264       -0.22772       -2.46864
H          6.62932       -0.90616       -3.85242
H          6.91396       -2.12476       -1.07395
H          7.00118       -2.92146       -2.68127
