24

N          0.92609       -0.14850        0.38933
C          0.35633        1.13087        0.76441
C          0.95911        2.33613        0.03945
C          0.57543        2.47312       -1.45151
O         -0.88682        2.49842       -1.52332
P          1.18543        3.99435       -2.26555
O          0.49406        4.87805       -1.22062
O          2.71393        3.81863       -1.68265
O          1.76210        5.43245       -3.03511
P          1.18543        1.00752       -2.36190
O         -0.20435        0.66365       -2.91960
O          1.92042        1.85564       -3.55397
O          1.76210       -0.37799       -3.22255
H          0.43752       -0.63563       -0.35735
H          1.93586       -0.17503        0.30808
H         -0.73115        1.10001        0.64351
H          0.53879        1.26079        1.83768
H          0.62203        3.22738        0.58156
H          2.04981        2.30318        0.14403
H         -1.12241        1.85132       -2.22808
H          2.85549        4.59341       -1.09410
H          2.03298        5.23890       -3.95096
H          2.78635        1.43983       -3.76148
H          1.04381       -0.56542       -3.86851
