20

C          1.03642       -0.06441       -0.09769
C          0.49591       -1.44137       -0.37635
C          1.37213       -2.53297       -0.27142
C          0.92003       -3.83016       -0.48694
C         -0.40911       -4.04947       -0.83529
C         -1.29591       -2.97915       -1.00504
N         -2.65000       -3.26984       -1.25576
C         -0.86355       -1.66722       -0.70306
C         -1.85346       -0.52956       -0.75787
H          0.62242        0.32215        0.83883
H          0.79448        0.61686       -0.91977
H          2.12772       -0.07235       -0.00252
H          2.41447       -2.37858       -0.00089
H          1.59921       -4.67046       -0.37506
H         -0.75216       -5.07076       -0.97792
H         -2.78566       -4.14945       -1.74411
H         -3.15048       -2.51128       -1.70577
H         -2.16902       -0.35797       -1.79208
H         -2.73067       -0.76072       -0.14378
H         -1.45039        0.41034       -0.37323
