40

C          3.68119       -0.38508       -0.42502
C          2.19566       -0.25144       -0.33476
C          1.36283       -1.33387       -0.45706
C         -0.05284       -1.23745       -0.23080
C         -0.92276       -0.04649        0.14779
S         -3.29662        0.03128        0.83258
O         -4.19919       -0.87927        0.12630
O         -3.49953       -0.08376        2.28044
N         -4.29037        1.35287        0.57481
C         -4.17168        2.63880        0.16241
O         -5.08925        3.43672        0.19446
N         -2.95875        2.89395       -0.29386
C         -2.02772        1.82848       -0.21390
C         -1.63112        1.43264        1.68236
C         -1.29536       -0.42055        2.21528
C         -1.95180       -1.85766        1.07037
C         -2.33921       -1.47755       -0.82891
C         -2.43089        0.36075       -1.40318
C          0.17237        1.02102        0.20800
C          1.58585        0.93433       -0.02193
H          4.06389       -0.86488        0.48256
H          3.96692       -0.98584       -1.29362
H          4.16531        0.59241       -0.52106
H          1.78393       -2.31411       -0.68550
H         -0.38073       -2.27376       -0.34353
H         -5.23640        1.09479        0.84550
H         -2.74434        3.84076       -0.58240
H         -1.21838        2.33798       -0.75627
H         -0.80876        2.04418        2.08874
H         -2.45265        1.85048        2.28941
H         -1.65399       -0.58243        3.24334
H         -0.20301       -0.54535        2.31184
H         -2.87275       -2.26515        1.52389
H         -1.27993       -2.72118        1.19909
H         -3.23557       -2.04460       -1.13923
H         -1.66629       -1.96408       -1.55510
H         -3.42857        0.52762       -1.83461
H         -1.71001        0.44429       -2.23113
H          0.04696        2.07209        0.48653
H          2.18766        1.83538        0.10266
