34

C          0.22364        0.38590       -0.30833
C         -0.44029        0.13002        0.82690
C         -1.68655       -0.70980        0.93296
C         -1.51681       -2.19367        0.59501
C         -1.12930       -3.05568        1.78986
O         -1.97695       -3.48081        2.56965
C          0.31727       -3.41157        1.97584
C          0.64470       -4.66577        2.31004
C          2.05008       -5.11340        2.54722
C          3.15625       -4.09059        2.25733
C          2.76645       -2.59413        2.26625
C          2.97599       -1.99250        3.67145
C          3.70022       -1.83623        1.29390
C          1.31869       -2.32574        1.80272
H         -0.10527       -0.00196       -1.26703
H          1.12807        0.98877       -0.29711
H         -0.06032        0.55473        1.75562
H         -2.09107       -0.59586        1.94608
H         -2.43190       -0.27461        0.25561
H         -2.48457       -2.58348        0.25123
H         -0.82329       -2.36331       -0.23507
H         -0.13371       -5.41826        2.43079
H          2.23769       -5.99587        1.92067
H          2.13026       -5.45661        3.58489
H          3.58930       -4.34600        1.28155
H          3.97138       -4.26163        2.97507
H          4.02267       -2.07558        3.98577
H          2.72754       -0.92304        3.68191
H          2.35242       -2.48780        4.42169
H          3.59228       -2.22372        0.27261
H          3.45730       -0.76765        1.26245
H          4.75125       -1.94114        1.57923
H          0.95035       -1.45201        2.35063
H          1.32548       -2.07093        0.73794
