30

C          1.57306        0.06663       -0.28615
C          1.23133        0.23374        1.18566
C          1.10379        1.68935        1.65222
C          0.19751        2.61743        0.82830
N         -1.19511        2.65912        1.32100
C         -1.81202        3.85812        1.59803
N         -3.05039        4.13659        1.77470
O         -1.00548        4.91884        1.72505
C         -1.97337        1.58373        0.82633
C         -2.58776        1.64841       -0.43324
C         -3.34961        0.57940       -0.90837
C         -3.50282       -0.56685       -0.13082
C         -2.91449       -0.63592        1.13028
C         -2.16821        0.44122        1.61181
H          0.73960        0.36567       -0.92827
H          1.78666       -0.98509       -0.50332
H          2.45456        0.65537       -0.55694
H          0.32395       -0.33073        1.40695
H          2.02417       -0.23987        1.77861
H          0.79862        1.70096        2.70619
H          2.11604        2.11525        1.62735
H          0.65066        3.61279        0.90844
H          0.23221        2.39537       -0.24373
H         -3.58367        3.26596        1.67748
H         -1.59582        5.66423        1.92695
H         -2.47813        2.53943       -1.04735
H         -3.82266        0.64205       -1.88495
H         -4.08609       -1.40434       -0.50519
H         -3.03445       -1.52784        1.73976
H         -1.72092        0.38225        2.60143
