22

O          1.10808        0.65788        0.05056
N          2.16256        0.01183        0.02912
O          2.61604       -0.64477        0.97384
C          2.94212        0.03227       -1.21716
C          4.10727       -0.73484       -1.32158
C          4.84472       -0.69854       -2.51929
N          6.08874       -1.45292       -2.53914
O          6.01791       -2.65027       -2.24376
O          7.11762       -0.80881       -2.76343
C          4.44322        0.08288       -3.61162
S          5.29902       -0.05762       -5.15039
O          6.27421        1.00186       -5.20247
O          5.63614       -1.45195       -5.31028
O          4.21444        0.26350       -6.29424
C          3.28493        0.85459       -3.47080
N          2.83644        1.76350       -4.51114
O          3.66050        2.58230       -4.93173
O          1.65709        1.66902       -4.86510
C          2.52636        0.83750       -2.28456
H          4.44993       -1.35022       -0.48780
H          4.57175        0.98789       -6.85948
H          1.62850        1.45284       -2.20138
