32

N          3.57505       -0.58676       -0.33461
C          2.23545       -0.19804       -0.09799
C          1.94031        1.16474       -0.03282
C          0.61888        1.60158        0.04208
C         -0.44249        0.68859        0.02911
C         -1.76907        1.14689        0.08897
C         -2.83824        0.25316        0.06649
C         -2.59379       -1.11215       -0.01334
C         -1.27954       -1.58224       -0.08240
C         -0.17493       -0.70042       -0.06797
C          1.17584       -1.14111       -0.15800
N          1.45455       -2.51277       -0.39583
N          2.12712       -3.02019        0.52824
C          2.49472       -4.36143        0.26540
C          3.54635       -4.90789        1.01419
C          3.95797       -6.23154        0.82641
C          3.31860       -7.03175       -0.11716
C          2.27354       -6.50833       -0.87397
C          1.86525       -5.18455       -0.68261
H          3.69948       -1.57690       -0.12005
H          4.25500        0.00285        0.13245
H          2.74029        1.89946       -0.06207
H          0.42547        2.67152        0.09017
H         -1.98122        2.21288        0.14740
H         -3.85880        0.62444        0.11028
H         -3.42352       -1.81407       -0.02502
H         -1.11794       -2.65720       -0.14246
H          4.05220       -4.29408        1.75557
H          4.77471       -6.63664        1.41855
H          3.63294       -8.06235       -0.26240
H          1.77203       -7.12763       -1.61326
H          1.04623       -4.79870       -1.28412
