42

C          0.97489       -0.27009        0.14748
N          0.58698       -0.85199        1.42019
C         -0.26418       -0.02184        2.27137
C          0.94734       -2.09990        1.88531
O          1.60424       -2.87651        1.00280
N          0.67782       -2.54020        3.07404
C          1.00870       -3.85403        3.44643
C          2.32646       -4.31103        3.56468
C          2.60453       -5.63310        3.95927
C          1.55855       -6.52876        4.21801
N          1.83668       -7.89650        4.42167
N          2.81660       -8.33465        5.28092
C          2.65077       -9.62572        5.24574
C          3.36092      -10.69197        6.06278
C          4.87908      -10.53337        5.93408
C          2.94163      -10.55141        7.53241
C          2.97413      -12.10477        5.57978
O          1.69449      -10.07648        4.40303
C          1.17547       -8.95645        3.83953
O          0.33658       -8.97346        2.95190
C          0.23946       -6.03571        4.18605
Cl        -1.10942       -6.95305        4.77874
C         -0.02586       -4.71557        3.80594
H          0.61605        0.75772        0.02405
H          0.56424       -0.85295       -0.68379
H          2.06581       -0.24107        0.05902
H         -1.22088       -0.52270        2.45595
H          0.22582        0.17480        3.23053
H         -0.49176        0.94941        1.81819
H          1.69349       -2.45499        0.14412
H          3.14336       -3.63732        3.31861
H          3.63795       -5.96921        3.99140
H          5.21947       -9.57206        6.33324
H          5.40469      -11.32474        6.48256
H          5.19465      -10.58709        4.88625
H          1.85278      -10.61719        7.64150
H          3.38646      -11.34235        8.14828
H          3.25470       -9.58831        7.94986
H          1.89593      -12.28056        5.67889
H          3.23471      -12.24890        4.52467
H          3.48541      -12.88172        6.15917
H         -1.04717       -4.34404        3.79662
