42

C         -0.37884       -0.58141        0.04114
C          0.22595       -1.97612        0.02370
O          1.00222       -2.18162        1.19301
P          2.73222       -2.18162        1.19302
O          2.70391       -3.25014        0.09158
N          2.76981       -0.61659        0.51846
C          3.55258       -0.31873       -0.69535
C          2.98901       -0.93937       -1.97447
C          3.61109        1.20177       -0.87786
O          4.46222       -2.18162        1.19302
C          5.15135       -3.22389        1.76769
C          4.77498       -4.55425        1.65455
C          5.55003       -5.55861        2.23638
C          6.72959       -5.25356        2.93544
S          7.60268       -6.67664        3.65523
C          8.36943       -7.27630        2.12846
O          8.69324       -6.15468        4.54290
C          7.13061       -3.90802        3.03717
C          8.36857       -3.47014        3.77146
C          6.32893       -2.90482        2.44612
H         -0.79740       -0.34675        1.02541
H         -1.16497       -0.48827       -0.71323
H          0.37417        0.18301       -0.17064
H         -0.58656       -2.70920        0.05312
H          0.78511       -2.15745       -0.89436
H          3.05462        0.02703        1.24700
H          4.58554       -0.66085       -0.57501
H          1.96158       -0.61274       -2.16419
H          3.58976       -0.64011       -2.84137
H          3.00861       -2.03075       -1.95056
H          4.07271        1.68710       -0.01143
H          4.21290        1.46049       -1.75681
H          2.61161        1.62788       -1.01928
H          3.90044       -4.86494        1.09015
H          5.22176       -6.58966        2.12678
H          8.95518       -6.48120        1.66134
H          9.02736       -8.11276        2.37700
H          7.59625       -7.62788        1.44037
H          8.59452       -2.41584        3.57733
H          8.22693       -3.58322        4.85072
H          9.24367       -4.03511        3.43810
H          6.62760       -1.86160        2.51476
