29

C          1.46387        0.12990        0.40729
C          0.80417        1.49820        0.30673
C          0.96042        2.14903       -1.07115
C          0.27356        1.41966       -2.22890
O         -1.13905        1.67675       -2.25491
C         -1.94365        0.81539       -1.58481
O         -1.55202       -0.15786       -0.94998
N         -3.26455        1.17390       -1.56953
C         -3.97393        2.03553       -2.42191
C         -5.22350        2.49057       -1.98614
C         -6.00529        3.31008       -2.80411
C         -5.55726        3.65459       -4.07693
C         -4.32410        3.18835       -4.52650
C         -3.53120        2.38755       -3.69932
H          1.02045       -0.59210       -0.28329
H          1.34872       -0.26988        1.41983
H          2.53464        0.19652        0.19006
H         -0.25219        1.42629        0.58280
H          1.26805        2.15491        1.05299
H          0.56349        3.16989       -1.00803
H          2.03126        2.23144       -1.29323
H          0.66199        1.83204       -3.16732
H          0.48963        0.34723       -2.25439
H         -3.78142        0.71490       -0.83229
H         -5.59389        2.23262       -0.99736
H         -6.96536        3.67518       -2.44874
H         -6.17072        4.27910       -4.72110
H         -3.98095        3.43615       -5.52781
H         -2.59458        2.01157       -4.09889
