14

S          0.83934       -0.05940       -0.07293
C          2.49343       -0.01613       -0.06978
N          3.29439       -1.14562       -0.06813
C          4.68037       -1.08043       -0.06508
N          5.38303        0.01408       -0.06381
C          4.60666        1.12328       -0.06568
N          5.05555        2.40919       -0.06515
C          3.95046        3.22123       -0.06707
N          2.82757        2.53075       -0.06925
C          3.23162        1.22032       -0.06843
H          2.82822       -2.04172       -0.06910
H          5.16402       -2.07046       -0.06372
H          6.02258        2.69772       -0.06350
H          4.02859        4.30049       -0.06676
