15

O          1.10823       -0.06421       -0.00176
C          2.32011        0.05124        0.03010
O          3.09432        0.13675       -1.07145
C          3.09631        0.05278        1.28973
C          2.69562       -0.80683        2.32127
C          3.39921       -0.82717        3.52748
C          4.49371        0.01852        3.70470
C          4.86951        0.88263        2.68048
F          5.91249        1.70278        2.86101
C          4.18102        0.91486        1.47325
H          4.05253        0.04819       -0.91245
H          1.83331       -1.45839        2.18575
H          3.08972       -1.49556        4.32774
H          5.04876        0.01835        4.63823
H          4.48204        1.62892        0.71355
