25

C          1.13731        0.01814        0.04697
C          0.58758       -1.36537       -0.12330
N          1.44926       -2.38157        0.13158
C          0.93740       -3.62894       -0.01721
C          1.75301       -4.80900        0.23102
O          3.01476       -4.56350        0.61753
N          1.38151       -6.03297        0.11895
C          0.09086       -6.29880       -0.27479
O         -0.28934       -7.46121       -0.39720
N         -0.77617       -5.23926       -0.53103
C         -2.13091       -5.53958       -0.94648
C         -0.36094       -3.90094       -0.40109
N         -1.21830       -2.88259       -0.64795
C         -0.74026       -1.61237       -0.50026
C         -1.73160       -0.52463       -0.78493
H          0.66156        0.51150        0.90001
H          0.97822        0.61286       -0.85763
H          2.21600       -0.01368        0.23403
H          3.46002       -5.41619        0.75619
H         -2.09381       -6.13234       -1.86671
H         -2.61238       -6.14319       -0.16986
H         -2.73787       -4.64940       -1.12677
H         -2.01526       -0.55385       -1.84173
H         -2.62930       -0.67815       -0.17708
H         -1.35171        0.47505       -0.56221
