21

N          1.03305       -0.05968       -0.08863
S          0.38817        1.47396       -0.31429
O          1.08220        2.02196       -1.45644
O         -1.04868        1.35007       -0.26801
C          0.83535        2.52939        1.03502
C          0.89928        3.90700        1.13736
C          1.37349        4.31935        2.40851
C          1.63034        3.26539        3.25219
S          1.28589        1.77030        2.49930
C          2.13936        3.32091        4.60948
O          2.36828        2.32478        5.29771
C          2.49271        4.69450        5.15816
C          1.60803        5.82452        4.65421
S          1.63548        5.99498        2.84345
H          0.45688       -0.74453       -0.57954
H          2.00419       -0.08273       -0.40028
H          0.63584        4.56628        0.31782
H          3.54806        4.89063        4.93678
H          2.39043        4.64424        6.24957
H          0.57062        5.67380        4.97119
H          1.94870        6.77303        5.08257
