20

N          1.06766       -0.00609        0.01024
C          0.43598        1.33867        0.08524
C          0.97963        2.20822       -1.07703
O          0.38491        3.00406       -1.78552
O          2.31923        2.04991       -1.24646
C         -1.08538        1.29066        0.17026
C         -1.81372        2.49168        0.26318
C         -3.20606        2.48867        0.37875
C         -3.89906        1.28326        0.41992
C         -3.19943        0.08220        0.35018
C         -1.80614        0.08545        0.23173
H          0.81008       -0.41829       -0.88665
H          2.07662        0.15190       -0.05864
H          0.78927        1.80623        1.01334
H          2.53082        2.67655       -1.97105
H         -1.30003        3.45140        0.24025
H         -3.74655        3.42972        0.43858
H         -4.98148        1.27955        0.51350
H         -3.73574       -0.86206        0.39641
H         -1.29191       -0.87274        0.20576
