48

C          1.42659       -0.46751       -1.24990
O          0.51804       -1.00426       -0.29704
C          0.83707       -2.23784        0.23604
C          2.18405       -2.67545        0.43231
C          2.43963       -3.88705        1.05725
N          3.74113       -4.19407        1.66187
S          4.47889       -5.76740        1.84606
O          5.17530       -6.03985        0.60511
O          5.19123       -5.73361        3.10414
C          3.21939       -7.08785        1.98642
C          2.50015       -7.38636        0.40970
C          0.90392       -7.99258        0.17497
C         -0.13676       -8.33572        1.60090
C         -1.47430       -8.88850        0.94698
C          0.64899       -7.99939        3.44284
C          2.39820       -7.45667        3.53543
C          1.28426       -4.51438        1.49485
C         -0.06712       -4.18425        1.36017
C         -0.29799       -2.97373        0.72875
N         -1.60148       -2.54817        0.41061
C         -1.10685       -5.08269        2.08728
O         -2.26378       -4.72384        2.25627
C         -0.65737       -6.46551        2.55136
C         -1.59005       -7.75436        3.27368
C         -1.00778       -9.44681        3.39940
C          0.56594       -9.99570        2.78109
C          1.65853       -8.74943        2.05711
C          0.98361       -6.84307        2.01193
C          1.47954       -5.47826        2.47660
O          1.76377       -5.06471        3.59349
H          0.98030        0.45005       -1.64666
H          1.57220       -1.16103       -2.08379
H          2.38049       -0.19014       -0.79188
H          3.02189       -2.03754        0.16989
H          3.84982       -3.73295        2.57406
H          3.06530       -7.08409       -0.47563
H          0.52987       -8.14880       -0.83467
H         -1.34717       -8.93275       -0.14090
H         -1.70536       -9.92323        1.21852
H         -2.33692       -8.23132        1.08769
H          0.22733       -8.07699        4.46185
H          2.82056       -7.13793        4.48717
H         -2.30531       -2.91476        1.05810
H         -1.64991       -1.53749        0.29396
H         -2.60824       -7.53343        3.59523
H         -1.66819      -10.18221        3.86062
H          0.89666      -11.02151        2.90430
H          2.66212       -9.16681        1.87389
