21

O          1.09222        0.92343       -0.12353
C          2.20687        0.43991       -0.06652
O          2.85052       -0.12405       -1.10932
C          3.02389        0.43694        1.16112
C          4.26410        1.09397        1.13351
C          5.02697        1.18628        2.29610
C          4.55625        0.61966        3.48127
C          3.32010       -0.04730        3.51016
C          2.92201       -0.65332        4.79481
O          3.14281       -0.18602        5.89534
O          2.41402       -1.88426        4.62772
C          2.54040       -0.12698        2.34977
C          1.20749       -0.74223        2.39035
O          0.31349       -0.46833        3.16609
O          1.11363       -1.71754        1.47134
H          3.67776       -0.58888       -0.87933
H          4.61702        1.57214        0.22088
H          5.97986        1.71236        2.28632
H          5.15531        0.69721        4.38855
H          2.18149       -2.17724        5.53470
H          0.18578       -2.02901        1.54754
