14

S          1.47203        0.22955        0.99489
C          2.87095       -0.03105        0.27805
N          3.89788       -0.19922       -0.26937
C          4.55452       -1.36333        0.16913
C          4.29812       -2.59980       -0.44134
C          4.97226       -3.75115       -0.02903
C          5.92230       -3.67196        0.98824
C          6.19865       -2.44129        1.58152
Cl         7.38312       -2.34219        2.82595
C          5.52685       -1.28960        1.17355
H          3.57029       -2.66553       -1.24720
H          4.76136       -4.70569       -0.50515
H          6.44877       -4.56805        1.30705
H          5.75861       -0.33159        1.63117
