31

C         -0.53621       -0.31800        0.43582
C          0.12680       -1.46071       -0.31053
O          1.08044       -2.12306        0.49850
C          2.48150       -2.06860        0.19318
C          2.87630       -2.34279       -1.28538
C          4.22964       -3.07656       -1.33698
C          2.97653       -1.07706       -2.16509
C          3.66664        0.10316       -1.48911
C          3.10827        0.39018       -0.09945
C          3.20452       -0.84532        0.79772
C          2.76756       -0.55016        2.23297
H         -1.10340       -0.69456        1.29311
H         -1.21922        0.22481       -0.22403
H          0.19366        0.39207        0.82802
H         -0.64464       -2.19663       -0.56103
H          0.52995       -1.10330       -1.25170
H          2.85543       -2.92565        0.76971
H          2.13121       -3.01131       -1.73476
H          4.19038       -4.01084       -0.76729
H          4.49235       -3.33364       -2.36896
H          5.04152       -2.46676       -0.92815
H          1.98364       -0.75597       -2.49095
H          3.50430       -1.31110       -3.09847
H          3.55455        0.99499       -2.11675
H          4.74312       -0.09252       -1.41710
H          2.07579        0.73718       -0.18758
H          3.67682        1.21576        0.34526
H          4.27295       -1.09931        0.85485
H          2.97725       -1.41073        2.87791
H          3.31704        0.30647        2.63715
H          1.70132       -0.32826        2.31098
