36

C          1.02751        0.00007       -0.12823
C          0.17570        0.70951       -0.88216
C         -1.29532        0.82324       -0.59890
N         -1.61677        2.22562       -0.36339
C         -2.29533        2.94760       -1.43261
C         -3.74076        3.11271       -1.06603
C         -4.37941        4.29035       -1.02206
C         -1.32288        2.74916        0.89410
O         -0.97999        2.02394        1.83512
C         -1.51077        4.25838        1.14853
O         -1.07568        5.21370        0.18924
C          0.24455        5.16273       -0.10843
O          1.06202        4.37534        0.33691
C          0.56302        6.17791       -1.13961
C          1.60994        5.91433       -2.03119
C          1.94703        6.85159       -3.00869
C          1.24923        8.05699       -3.08888
C          0.21100        8.32727       -2.19652
C         -0.13671        7.38862       -1.22295
H          0.68887       -0.53860        0.75265
H          2.08939       -0.02223       -0.34994
H          0.56520        1.26239       -1.73239
H         -1.86537        0.44009       -1.45229
H         -1.58384        0.22908        0.27551
H         -1.80710        3.90504       -1.61514
H         -2.22268        2.37961       -2.36706
H         -4.29206        2.20803       -0.81783
H         -5.42592        4.34621       -0.73699
H         -3.87533        5.22306       -1.25867
H         -2.58010        4.42418        1.31608
H         -1.02094        4.49685        2.10165
H          2.16305        4.97925       -1.96576
H          2.75806        6.64471       -3.70280
H          1.52010        8.79067       -3.84473
H         -0.32240        9.27306       -2.25555
H         -0.93918        7.61623       -0.52588
