30

C          1.01939        0.03933       -0.26802
C          0.59357       -1.39598        0.02521
C          0.95179       -1.86505        1.45617
C          0.15625       -1.00342        2.41117
O         -1.03227       -1.09561        2.66793
O          0.90193       -0.02327        2.96092
C          0.61960       -3.36151        1.72253
C          1.21950       -4.19668        0.59840
O          2.38104       -4.54773        0.47312
O          0.31550       -4.50513       -0.35761
C          1.01489       -3.94718        3.08768
C          0.71199       -5.29817        3.35402
C          0.99299       -5.87638        4.59505
C          1.56014       -5.11064        5.60712
C          1.87278       -3.77716        5.36630
C          1.62026       -3.20619        4.11402
H          0.49201        0.75821        0.36559
H          0.79176        0.29091       -1.30905
H          2.09605        0.16544       -0.11703
H         -0.48740       -1.48569       -0.14101
H          1.08737       -2.02801       -0.71981
H          2.02516       -1.70369        1.62227
H          0.27099        0.47625        3.52113
H         -0.47308       -3.48237        1.67041
H          0.83366       -4.99842       -1.02836
H          0.25066       -5.92230        2.59036
H          0.76057       -6.92329        4.77194
H          1.76096       -5.55133        6.57974
H          2.31498       -3.17393        6.15547
H          1.90930       -2.16878        3.98241
