26

C          0.92087        0.02823        0.22674
O          0.28779        0.62275        1.35587
C          0.79878        0.25876        2.58209
C          2.12853       -0.11415        2.79549
C          2.56418       -0.45362        4.07860
C          1.67910       -0.41797        5.15942
C          2.12867       -0.78652        6.54282
C          0.34830       -0.02899        4.94513
C         -0.09837        0.31811        3.66794
N         -1.42280        0.72324        3.38467
C         -2.48376        0.83901        4.25619
C         -3.75428        1.29875        3.58471
O         -2.47487        0.60705        5.46127
H          0.32608        0.27863       -0.65709
H          0.94434       -1.06324        0.31678
H          1.92486        0.43436        0.07085
H          2.85362       -0.13294        1.98931
H          3.60283       -0.74046        4.22850
H          1.97011        0.05314        7.22724
H          1.56682       -1.65494        6.90158
H          3.19324       -1.04110        6.56522
H         -0.32208       -0.00287        5.79895
H         -1.57091        0.94982        2.40640
H         -4.52543        0.53631        3.72638
H         -4.07704        2.23833        4.04163
H         -3.62206        1.46192        2.51193
