26

C          0.85580       -0.31129        0.02929
O          0.67241       -0.10774        1.42890
C          0.86734       -1.22613        2.17879
O          1.16948       -2.32612        1.73790
O          0.66042       -0.88327        3.50401
C          0.82097       -1.94454        4.39986
C          2.13307       -2.34316        4.69345
C          2.36261       -3.38224        5.59408
C          1.28522       -4.02665        6.20942
C          1.51728       -5.12584        7.20437
C         -0.02131       -3.58997        5.93318
C         -0.27228       -2.53953        5.03780
O         -1.60224       -2.24810        4.90340
C         -1.97022       -1.02585        4.28060
H          0.68904        0.64394       -0.47631
H          0.12908       -1.03564       -0.35161
H          1.87864       -0.63892       -0.18186
H          2.97717       -1.85328        4.21468
H          3.38531       -3.68622        5.80706
H          1.51244       -4.71697        8.21965
H          0.73798       -5.89109        7.12372
H          2.47845       -5.62075        7.02911
H         -0.86429       -4.06849        6.42999
H         -1.44309       -0.17028        4.71554
H         -1.83253       -1.08558        3.19688
H         -3.03907       -0.86902        4.45839
