29

C          0.82034        0.10413        0.28886
C          0.30994       -1.13512        0.27168
C         -1.13214       -1.45701        0.37831
O         -1.53764       -2.59179        0.58696
O         -1.89606       -0.36924        0.13552
C         -3.31832       -0.53993        0.18872
C         -4.01786       -0.91603       -1.13495
O         -3.57767       -0.29747       -2.33694
C         -2.26471       -0.60882       -2.78082
C         -1.54756        0.66126       -3.25935
O         -1.60268        1.78758       -2.37994
C         -2.88003        2.39694       -2.17408
C         -3.74507        2.57213       -3.41508
H          0.19454        0.98699        0.38679
H          1.89076        0.26438        0.20548
H          0.96094       -1.99826        0.18483
H         -3.59222       -1.27403        0.95619
H         -3.71117        0.41956        0.54111
H         -5.05664       -0.57535       -1.02254
H         -4.07181       -1.99836       -1.27609
H         -1.67359       -1.12345       -2.02870
H         -2.33538       -1.30940       -3.62165
H         -0.48481        0.42370       -3.38820
H         -1.90896        0.95842       -4.24798
H         -2.67990        3.38845       -1.75419
H         -3.42540        1.86417       -1.39130
H         -4.06256        1.61360       -3.83705
H         -4.65278        3.13230       -3.17168
H         -3.19680        3.10142       -4.19889
