28

C          1.23904       -0.01345        0.05082
C          0.62334        0.80021       -1.09140
C          1.11787        0.29343       -2.44748
C         -0.89445        0.82129       -1.04281
C         -1.57315        2.04342       -1.15086
C         -2.96902        2.09195       -1.12337
C         -3.72086        0.92102       -0.97524
C         -5.23023        0.97794       -0.92030
C         -5.76441        1.37248        0.45733
O         -5.54953        2.75500        0.72604
C         -3.04847       -0.30268       -0.87796
C         -1.65157       -0.35202       -0.92126
H          1.01370       -1.08175       -0.03530
H          0.86810        0.33132        1.02236
H          2.32944        0.09249        0.05150
H          0.98631        1.82986       -0.97132
H          0.81422       -0.74349       -2.62895
H          0.71826        0.90519       -3.26410
H          2.21107        0.33770       -2.50118
H         -1.01825        2.97223       -1.26402
H         -3.46715        3.05464       -1.22347
H         -5.58373        1.68356       -1.68207
H         -5.63487       -0.00543       -1.19010
H         -6.84634        1.20906        0.48666
H         -5.31179        0.78320        1.26185
H         -4.59871        2.85915        0.90763
H         -3.60499       -1.23187       -0.77788
H         -1.16252       -1.32173       -0.86316
