21

O          0.94358        0.83441        0.23608
C          2.02015        0.27542        0.11291
O          2.39272       -0.46129       -0.94122
C          2.95417        0.24719        1.24481
C          4.06717        1.09478        1.35387
N          4.50972        1.94474        0.24227
O          5.28983        2.86608        0.50963
O          4.14076        1.64394       -0.89521
C          4.81340        1.14637        2.55253
C          4.42855        0.36386        3.65232
N          5.20405        0.42420        4.90080
O          6.21718        1.13313        4.90739
O          4.79712       -0.24722        5.85623
C          3.31759       -0.47878        3.56803
C          2.59624       -0.52013        2.36547
N          1.47586       -1.44213        2.29384
O          0.59544       -1.31944        3.15138
O          1.55494       -2.33225        1.44029
H          3.32221       -0.75463       -0.99651
H          5.68294        1.80237        2.63205
H          3.00786       -1.09370        4.41419
