46

C         -0.35983        0.29509        0.22506
O         -0.29114       -0.27529        1.53218
C          0.13599       -1.57575        1.45178
C         -0.85350       -2.57025        1.44866
C         -0.49854       -3.91397        1.35606
C          0.85499       -4.25273        1.31403
N          1.24678       -5.66185        1.15967
O          0.34581       -6.51835        1.22947
O          2.43663       -5.91626        0.95429
C          1.84317       -3.25509        1.40344
C          1.50172       -1.89277        1.43565
N          2.49669       -0.88432        1.52266
N          2.92491       -0.56785        0.38904
C          3.99273        0.46330        0.32616
C          5.05950        0.33136        1.40919
C          6.49962        0.66313        1.09654
O          4.78457        0.07528        2.58795
C          4.50873        0.57539       -1.12373
O          4.32417        1.62807       -1.75413
N          5.27989       -0.37063       -1.76371
C          5.69954       -1.61874       -1.27996
C          7.07358       -1.88862       -1.29273
C          7.58682       -2.92980       -0.51557
C          6.72770       -3.70411        0.25373
C          5.35413       -3.55089        0.10065
C          4.83335       -2.56706       -0.74348
O          3.49568       -2.68487       -1.00439
C          3.00155       -2.15746       -2.23471
H         -1.10446        1.09472        0.25264
H         -0.66941       -0.42910       -0.53867
H          0.60289        0.73596       -0.04770
H         -1.90111       -2.28735        1.50879
H         -1.27838       -4.67312        1.32455
H          2.88906       -3.52678        1.43866
H          3.51393        1.43382        0.52525
H          6.83447        1.45854        1.76835
H          7.10714       -0.23024        1.26287
H          6.65359        1.01750        0.07847
H          5.81294        0.03870       -2.52453
H          7.76858       -1.25188       -1.83314
H          8.65712       -3.11401       -0.47593
H          7.11304       -4.46185        0.93117
H          4.69467       -4.23541        0.62390
H          2.75570       -1.09543       -2.14539
H          3.68618       -2.32730       -3.07038
H          2.05963       -2.66783       -2.45584
