19

O          0.96993        0.30030       -0.12147
C          2.16744        0.11494        0.00845
O          2.92919        0.78283        0.89908
C          2.95149       -0.81154       -0.84515
C          3.90811       -1.59979       -0.31832
C          4.71242       -2.56743       -1.13964
C          4.55703       -2.35650       -2.64672
C          3.10012       -2.10252       -3.01993
C          2.54692       -0.87224       -2.29403
H          3.88450        0.63280        0.77771
H          4.11145       -1.59903        0.75048
H          4.40027       -3.58496       -0.87558
H          5.77166       -2.47717       -0.87344
H          4.93659       -3.23356       -3.18293
H          5.16754       -1.50109       -2.96326
H          3.00782       -1.96299       -4.10296
H          2.49927       -2.98346       -2.75995
H          2.91197        0.03493       -2.79176
H          1.45528       -0.87631       -2.39415
