29

C          1.38246       -0.09682        0.12108
C          0.55076       -0.07134        1.40454
C          0.90061        1.17167        2.22360
C         -0.95981       -0.10620        1.12549
O         -1.35823       -1.34769        0.52172
C         -1.51463       -1.33138       -0.82260
O         -1.30659       -0.40850       -1.59037
C         -1.94200       -2.66897       -1.25509
C         -3.22652       -3.12490       -0.95483
C         -3.63219       -4.38145       -1.41261
C         -2.77917       -5.16716       -2.19612
N         -3.14980       -6.47059       -2.54672
C         -1.47282       -4.72223       -2.42813
C         -1.05908       -3.46232       -1.98805
H          1.10870        0.72793       -0.54568
H          1.24679       -1.03766       -0.42073
H          2.45035       -0.00477        0.34702
H          0.81974       -0.96200        1.98639
H          0.63900        2.08872        1.68435
H          0.36207        1.17364        3.17705
H          1.97236        1.20460        2.44658
H         -1.50559       -0.04441        2.07422
H         -1.27976        0.75565        0.52708
H         -3.90866       -2.51169       -0.37262
H         -4.62599       -4.74119       -1.15843
H         -2.63869       -6.84189       -3.34184
H         -4.15238       -6.59845       -2.64549
H         -0.76767       -5.35235       -2.96411
H         -0.05305       -3.11233       -2.20359
