32

C          0.92283       -0.07640       -0.32786
O          0.58671       -0.41004       -1.67612
C          0.78509        0.59619       -2.57030
O          1.19481        1.71223       -2.28493
C          0.43138        0.17692       -3.94775
C         -0.34325       -0.90901       -4.16809
C         -0.76096       -1.43704       -5.47525
C         -2.12229       -1.65600       -5.70792
C         -2.56127       -2.09362       -6.95959
C         -1.65064       -2.30872       -7.99439
O         -2.20431       -2.68950       -9.18524
C         -1.41667       -2.43496      -10.34324
C         -0.28695       -2.14915       -7.75069
C          0.15681       -1.72668       -6.49233
C          0.98543        0.98318       -5.05733
O          2.18021        1.20274       -5.19566
O         -0.00280        1.37493       -5.90107
C          0.42627        1.95008       -7.13794
H          0.57591       -0.88880        0.31689
H          0.42602        0.84675       -0.01276
H          2.00846        0.01124       -0.22457
H         -0.75055       -1.46928       -3.32827
H         -2.85772       -1.46370       -4.93008
H         -3.62357       -2.24249       -7.13665
H         -1.05462       -1.40078      -10.36385
H         -0.58618       -3.14410      -10.41306
H         -2.05536       -2.58015      -11.21981
H          0.45481       -2.34812       -8.51712
H          1.22598       -1.60713       -6.32832
H          0.30761        3.03495       -7.08860
H          1.45889        1.69557       -7.39759
H         -0.22107        1.56128       -7.92999
