10

C          0.96253        0.04685        0.08090
C          0.43525        1.46360       -0.08861
O          0.93566        2.00927       -1.31062
C         -1.08475        1.46360       -0.08861
N         -2.34571        1.46360       -0.08860
H          0.65086       -0.59136       -0.75411
H          0.60425       -0.40562        1.01127
H          2.05782        0.04242        0.08965
H          0.78595        2.09840        0.73232
H          1.90631        2.00000       -1.26022
