30

C          0.94514        0.03102       -0.23061
O          0.54011        0.49934        1.05283
C          0.91030       -0.36057        2.06962
C         -0.00827       -0.85718        2.90435
O          0.24378       -1.70158        3.95397
C          1.56322       -1.98867        4.27665
C          1.75502       -2.84449        5.49855
S          0.65881       -2.37334        6.85129
P          1.52516       -0.67162        7.67461
O          0.49807        0.16320        8.38330
O          2.72853       -1.11009        8.66536
C          2.39595       -1.99432        9.72148
O          2.32563        0.14578        6.53409
C          2.62744        1.50853        6.75600
C          2.59264       -1.54511        3.53896
C          2.33400       -0.71575        2.34209
O          3.27020       -0.35429        1.63689
H          0.41355        0.62315       -0.98182
H          0.67157       -1.02013       -0.37548
H          2.01595        0.17784       -0.39145
H         -1.06512       -0.64396        2.82464
H          1.52959       -3.88367        5.23745
H          2.79006       -2.81334        5.85585
H          1.33106       -1.94930        9.96994
H          2.65304       -3.01442        9.42216
H          2.97479       -1.73019       10.60946
H          2.50412        2.04410        5.81031
H          1.96715        1.96572        7.49686
H          3.66536        1.60754        7.08324
H          3.62889       -1.76460        3.76123
