22

Cl         2.97314        1.19356        0.31247
C          1.26861        0.93575        0.16214
C          0.45009        2.06664        0.22498
C         -0.94514        1.96458        0.09130
C         -1.76026        3.19846        0.17948
C         -2.48804        3.51641        1.34685
Cl        -2.43848        2.50542        2.75443
C         -3.26933        4.67594        1.42555
C         -3.32725        5.55555        0.34902
C         -2.60671        5.27603       -0.80834
C         -1.83674        4.10917       -0.89538
Cl        -0.98675        3.83695       -2.38101
C         -1.50717        0.68482       -0.11587
Cl        -3.22953        0.54411       -0.34590
C         -0.68640       -0.46263       -0.15412
Cl        -1.40076       -2.03771       -0.36635
C          0.70805       -0.33541       -0.01660
Cl         1.73843       -1.73553       -0.06959
H          0.90628        3.04582        0.37254
H         -3.83331        4.89788        2.32907
H         -3.93148        6.45801        0.41260
H         -2.65013        5.96959       -1.64544
