31

C          1.20486       -0.02592        0.09157
O          0.76045        0.48759        1.34914
C          0.99828       -0.33286        2.41858
O          1.65909       -1.36682        2.32755
C          0.40814        0.24348        3.73167
S         -1.33666       -0.20760        3.69633
O         -2.01742        0.60640        2.70226
O         -1.44404       -1.65496        3.60783
C         -2.13386        0.22235        5.24333
C         -2.54961        1.54112        5.45725
C         -3.22672        1.86858        6.63342
C         -3.51172        0.87345        7.56896
Br        -4.45498        1.31575        9.14627
C         -3.12373       -0.44765        7.34251
C         -2.43266       -0.77804        6.17457
C          1.16470       -0.11232        5.04219
C          1.07322        1.35636        5.47855
C          0.71656        1.73611        4.03506
H          0.84672        0.64664       -0.69279
H          0.78611       -1.02069       -0.09151
H          2.29792       -0.05064        0.05894
H         -2.36988        2.31355        4.71309
H         -3.54507        2.89457        6.80204
H         -3.36998       -1.22780        8.05911
H         -2.15902       -1.81569        5.99273
H          0.68105       -0.82737        5.71307
H          2.19782       -0.44534        4.88378
H          2.00490        1.78940        5.85438
H          0.28282        1.55791        6.20716
H          1.57240        2.13402        3.47557
H         -0.10819        2.44457        3.92681
