14

O          1.01251        0.06299        0.07147
C          0.34635        1.13705       -0.45544
C         -0.78876        1.56708        0.22592
C         -1.51068        2.65650       -0.25931
Cl        -2.91296        3.16611        0.60734
C         -1.09392        3.31102       -1.42407
O         -1.81845        4.38308       -1.88541
C          0.05074        2.87413       -2.10870
Cl         0.52535        3.71805       -3.54722
C          0.77653        1.78008       -1.62224
Cl         2.19720        1.18775       -2.41525
H          1.78053       -0.12653       -0.50094
H         -1.10355        1.05164        1.12985
H         -1.39138        4.71661       -2.69660
