26

C          0.99050        0.13215       -0.12357
C          0.59892       -1.29067       -0.49260
C          1.02259       -2.33129        0.54734
C          0.46206       -2.12003        1.96052
C         -1.07688       -2.07517        2.06743
C         -1.70589       -3.39674        1.61106
C         -1.53871       -1.76916        3.50803
C         -1.16052       -0.37368        3.98676
H          0.45455        0.47895        0.76490
H          0.74579        0.81430       -0.94401
H          2.06547        0.20610        0.06922
H         -0.48184       -1.33988       -0.66413
H          1.07372       -1.54545       -1.44780
H          0.74437       -3.32721        0.18399
H          2.11830       -2.33435        0.61333
H          0.84166       -2.92695        2.60091
H          0.89252       -1.19599        2.36026
H         -1.46232       -1.27870        1.42026
H         -1.32641       -4.23972        2.19836
H         -2.79506       -3.36941        1.72575
H         -1.49976       -3.59495        0.55508
H         -2.63155       -1.85490        3.55953
H         -1.13124       -2.51336        4.20274
H         -1.49491        0.39002        3.27761
H         -1.63358       -0.16842        4.95257
H         -0.08041       -0.27176        4.12379
