22

C          1.06441       -0.08679        0.15449
C          0.60524       -1.24592       -0.71752
N          1.05770       -2.50333       -0.13803
C          0.61581       -3.69988       -0.88719
C          1.08184       -3.78536       -2.35219
C          2.58807       -3.66769       -2.55846
C          1.05124       -4.97182       -0.14634
O          0.46838       -6.04615       -0.16363
O          2.23486       -4.85798        0.49837
H          0.67047       -0.17434        1.17264
H          0.71080        0.86144       -0.26326
H          2.15744       -0.04259        0.21099
H         -0.48856       -1.23065       -0.78092
H          1.00780       -1.10139       -1.72503
H          2.07392       -2.52665       -0.04011
H         -0.48174       -3.71343       -0.86257
H          0.75486       -4.74288       -2.77767
H          0.58488       -3.00669       -2.94277
H          3.12493       -4.48079       -2.06122
H          2.82198       -3.72236       -3.62677
H          2.97620       -2.71591       -2.18445
H          2.35975       -5.73981        0.90555
