30

C          1.38800       -0.20449       -0.01073
C          0.93484        1.11232       -0.02722
C         -0.42995        1.38413       -0.16456
C         -1.36222        0.34403       -0.26013
N         -2.75397        0.56639       -0.43505
C         -3.41373        1.79746       -0.21766
C         -3.97989        2.08340        1.02681
C         -4.58398        3.32044        1.26273
C         -4.62932        4.29782        0.25745
C         -5.23865        5.54368        0.47769
C         -5.27932        6.50558       -0.53269
C         -4.71016        6.23507       -1.77349
C         -4.09579        5.00306       -2.00635
C         -4.04683        4.02345       -1.00065
C         -3.43224        2.77763       -1.21673
C         -0.88463       -0.97530       -0.28296
C          0.47868       -1.24972       -0.14636
H          2.44874       -0.41441        0.09722
H          1.64170        1.93274        0.06449
H         -0.75285        2.42136       -0.17896
H         -3.26428       -0.18878        0.01844
H         -3.94001        1.35072        1.82823
H         -5.01448        3.51670        2.24168
H         -5.68840        5.77333        1.44084
H         -5.75633        7.46487       -0.34961
H         -4.74358        6.98237       -2.56200
H         -3.65686        4.80982       -2.98256
H         -2.97122        2.55429       -2.17636
H         -1.57615       -1.80480       -0.40658
H          0.82851       -2.27853       -0.15163
