29

N         -0.26154       -2.35243        0.19935
C          0.36103       -1.09951        0.04492
C          1.74876       -1.04350       -0.12008
C          2.42173        0.18380       -0.15710
C          1.72496        1.38544        0.02144
C          2.44469        2.71394       -0.02701
C          2.29316        3.43534       -1.34680
C          1.15479        4.20873       -1.61162
C          0.99965        4.85830       -2.84038
C          1.96038        4.72822       -3.84697
N          1.83035        5.49955       -5.01728
C          3.12866        4.00225       -3.55607
Cl         4.39871        3.87412       -4.72502
C          3.28403        3.34111       -2.33250
C          0.34226        1.33185        0.24583
C         -0.32605        0.10450        0.27241
Cl        -2.03387        0.10735        0.55274
H         -1.26913       -2.30197        0.05963
H          0.17150       -3.09845       -0.33468
H          2.32231       -1.96173       -0.22099
H          3.49894        0.18874       -0.31084
H          2.08022        3.35578        0.78615
H          3.51081        2.56717        0.19241
H          0.37858        4.32239       -0.85797
H          0.11741        5.47235       -3.00317
H          2.42177        5.15848       -5.77274
H          0.86956        5.64796       -5.30819
H          4.18505        2.76162       -2.14703
H         -0.21995        2.24807        0.40602
