14

C          0.93972       -0.02468        0.14943
C          0.43116        1.02690       -0.82458
C          0.93380        0.82618       -2.25455
C          0.42524       -0.45291       -2.90141
H          0.54356       -1.01626       -0.08837
H          0.62352        0.22275        1.16793
H          2.03299       -0.07588        0.13726
H         -0.66496        1.03497       -0.81210
H          0.75935        2.01333       -0.47577
H          0.60561        1.67846       -2.86145
H          2.02992        0.83051       -2.26877
H         -0.66803       -0.49879       -2.87562
H          0.74144       -0.49545       -3.94867
H          0.82140       -1.34071       -2.39981
