13

C          1.15475       -0.37561        0.18398
C          0.33385        0.05319        1.14849
O         -1.01224        0.26125        1.11650
C         -1.73194        0.00119       -0.09505
C         -1.72933        1.16793       -1.07282
F         -0.51045        1.39542       -1.60760
F         -2.56978        0.90709       -2.10555
F         -2.15387        2.31321       -0.49492
H          0.83186       -0.62332       -0.81906
H          2.21650       -0.47908        0.38927
H          0.70652        0.29757        2.13919
H         -1.39702       -0.92743       -0.57104
H         -2.77006       -0.17681        0.20830
