14

Cl        -2.04433       -0.04016       -0.00726
C         -0.33339        0.05059       -0.00427
C          0.31428        1.26769       -0.00107
C          1.70135        1.25549        0.00146
C          2.38087        0.03502        0.00031
C          1.65986       -1.16612       -0.00357
C          2.32870       -2.54782       -0.00700
Cl         1.82254       -3.46848        1.45272
Cl         1.82856       -3.45757       -1.47571
Cl         4.12729       -2.50644       -0.00317
N          0.29268       -1.14387       -0.00555
H         -0.23885        2.19967       -0.00059
H          2.25650        2.19062        0.00410
H          3.46681        0.05923        0.00219
