25

O          1.12301       -0.50098       -0.03284
N          2.27815       -0.06144       -0.06799
N          2.90466       -0.19232       -1.27922
C          2.17447       -0.17237       -2.52493
C          2.55674       -1.01274       -3.58963
C          1.86331       -1.00388       -4.80246
C          0.77318       -0.15540       -4.97420
C          0.37316        0.68060       -3.93431
C          1.06548        0.67069       -2.71967
C          4.34608       -0.24543       -1.26575
C          5.11145        0.40866       -2.25064
C          6.50790        0.35235       -2.23609
C          7.16655       -0.35982       -1.23753
C          6.43210       -1.00720       -0.24737
C          5.03561       -0.94425       -0.25626
H          3.39105       -1.70105       -3.47133
H          2.17142       -1.66568       -5.60786
H          0.23099       -0.14995       -5.91635
H         -0.48036        1.34099       -4.06508
H          0.73781        1.33850       -1.92607
H          4.62474        0.99142       -3.02989
H          7.07905        0.86989       -3.00277
H          8.25259       -0.40674       -1.22828
H          6.94401       -1.56469        0.53305
H          4.48616       -1.47043        0.52165
