23

C          2.51606       -0.05945       -0.20398
C          1.07668       -0.03831        0.31122
C          0.30504       -1.26165       -0.19947
C         -1.15381       -1.25572        0.25720
C         -1.85552        0.04897       -0.14019
N         -3.31485        0.11499        0.23213
O         -3.68246       -0.79463        0.98163
C         -1.10543        1.32088        0.29161
N         -1.25133        1.69839        1.74564
O         -1.04536        0.76517        2.52714
C          0.37906        1.27024       -0.09982
H          3.02920       -0.97258        0.11557
H          2.54925       -0.01739       -1.29793
H          3.07968        0.79496        0.18539
H          1.12168       -0.08953        1.40602
H          0.33743       -1.29003       -1.29638
H          0.78760       -2.18125        0.15296
H         -1.19445       -1.41858        1.34043
H         -1.66867       -2.11184       -0.19780
H         -1.88799        0.05901       -1.23963
H         -1.55951        2.17984       -0.22186
H          0.91818        2.12605        0.32698
H          0.44708        1.37623       -1.19123
