52

C         -3.19747       -0.12173        0.04129
C         -1.99959       -0.11829        0.00421
C         -0.56910       -0.07319       -0.04184
C          0.07276        1.16537       -0.08295
C          1.46087        1.22412       -0.14296
C          2.20653        0.04439       -0.15095
C          1.58152       -1.21132       -0.07470
N          2.30914       -2.43767       -0.05716
C          3.71720       -2.53229        0.06404
N          4.35156       -3.08717       -0.98223
C          5.68531       -2.99536       -0.96605
N          6.42569       -2.37791       -0.03571
C          5.77195       -1.87355        1.02070
C          6.45293       -1.15222        1.99361
C          5.84709       -0.58669        3.14903
O          6.76165        0.22758        3.73967
C          6.51765        1.14509        4.78208
C          5.72202        2.41467        4.44710
O          4.44898        2.21400        3.84214
C          4.46797        2.39941        2.43166
C          4.51371       -0.89751        3.40148
O          3.66232       -0.73277        4.44200
C          3.98181       -0.47087        5.79014
C          4.75852       -1.53664        6.57364
O          5.99745       -1.94718        6.00406
C          5.92047       -3.21751        5.36583
C          3.80344       -1.54589        2.36988
C          4.40029       -1.98781        1.16660
C          0.18090       -1.25578       -0.04175
H         -4.26311       -0.10730        0.07497
H         -0.50312        2.08756       -0.07151
H          1.96545        2.18573       -0.18134
H          3.28752        0.13104       -0.21699
H          2.08155       -2.95433       -0.90707
H          6.21855       -3.44552       -1.79665
H          7.51660       -0.97490        1.82880
H          6.19816        0.63072        5.68083
H          7.51251        1.50647        5.07556
H          5.52460        2.92889        5.39595
H          6.32997        3.10053        3.84713
H          4.91460        3.36183        2.16586
H          5.01552        1.59982        1.93127
H          3.43668        2.38637        2.07082
H          4.35479        0.54095        5.91276
H          3.00796       -0.40843        6.29514
H          5.00793       -1.09721        7.54766
H          4.11801       -2.40063        6.78145
H          5.45197       -3.96174        6.01626
H          5.36159       -3.15779        4.43149
H          6.93631       -3.54881        5.13526
H          2.73708       -1.72743        2.51580
H         -0.32710       -2.21601        0.00344
