44

C         -0.81889       -2.18398       -0.60010
C         -1.51123       -1.23817       -1.57316
C         -1.70501        0.18338       -1.02480
C         -1.99322        1.27805       -2.07233
C         -0.96084        1.43668       -3.21371
C         -1.10123        0.39851       -4.29803
C         -2.04370        0.44203       -5.25189
C         -2.54276       -0.74838       -6.03992
C         -1.96761       -2.13369       -5.71981
C         -2.91906       -3.07875       -6.44270
O         -2.94337       -4.36076       -5.84173
C         -4.29222       -2.40832       -6.39644
C         -4.07438       -0.99019       -5.83293
C         -4.53546       -0.75929       -4.35733
O         -5.44095        0.35302       -4.36598
C         -5.25948       -1.83268       -3.60485
C         -4.96352       -2.32605       -2.38555
C         -3.83155       -1.96059       -1.49155
O         -3.95505       -1.88553       -0.28094
O         -2.69477       -1.78160       -2.19919
H         -1.38587       -2.34354        0.31797
H          0.16500       -1.77661       -0.33229
H         -0.65322       -3.15826       -1.07274
H         -0.78720       -1.18065       -2.37987
H         -2.53382        0.19479       -0.30574
H         -0.81229        0.48039       -0.46209
H         -3.00102        1.14374       -2.47883
H         -2.03050        2.23108       -1.52752
H         -1.08067        2.43258       -3.65651
H          0.05380        1.39804       -2.80136
H         -0.48295       -0.48904       -4.20537
H         -2.62651        1.35484       -5.36605
H         -2.36029       -0.53899       -7.10339
H         -0.93893       -2.25730       -6.07471
H         -1.96348       -2.34999       -4.64588
H         -2.60511       -3.20598       -7.48511
H         -3.28490       -4.26873       -4.93567
H         -5.03738       -2.99991       -5.86039
H         -4.66813       -2.32005       -7.42429
H         -4.61161       -0.27779       -6.47476
H         -3.70389       -0.43280       -3.74741
H         -4.89872        1.15219       -4.48362
H         -6.19323       -2.15744       -4.06164
H         -5.67133       -3.00094       -1.91155
