22

C          1.16565        0.17117       -0.00491
C          0.47462        0.34166        1.34108
O          0.79817        1.64183        1.85104
C         -1.05703        0.25214        1.28610
C         -1.67035       -1.10813        0.90125
C         -1.17175       -2.24831        1.79110
C         -3.19947       -1.01475        0.98333
O         -1.33254       -1.41205       -0.45213
H          0.74342        0.85271       -0.75126
H          1.08827       -0.85370       -0.37590
H          2.23057        0.41648        0.07495
H          0.87452       -0.38148        2.05878
H          1.76761        1.71419        1.87439
H         -1.44602        0.55455        2.26866
H         -1.41372        1.02017        0.58511
H         -1.34942       -2.03901        2.85085
H         -1.67645       -3.18808        1.53778
H         -0.10310       -2.43443        1.64129
H         -3.57840       -0.23896        0.30804
H         -3.66843       -1.95372        0.66722
H         -3.53637       -0.78632        1.99976
H         -1.78110       -2.23974       -0.69788
