21

C          0.97975       -0.08799       -0.00252
C          0.48430       -0.30643       -1.42260
C          0.86395       -1.65284       -1.93288
N          0.36615       -2.80595       -1.55417
C          1.00201       -3.79252       -2.31040
C          0.66712       -5.20740       -2.13647
O          1.11551       -6.16707       -2.74789
O         -0.25986       -5.43961       -1.17283
C          1.91422       -3.19197       -3.17256
C          2.83193       -3.65372       -4.16684
O          3.55702       -2.94429       -4.84885
O          2.84694       -4.98294       -4.30690
N          1.80477       -1.84210       -2.90383
H          0.58270       -0.84842        0.67880
H          0.66197        0.89360        0.36316
H          2.07310       -0.13213        0.04578
H         -0.60749       -0.21310       -1.44614
H          0.88633        0.47838       -2.07380
H         -0.36268       -6.41018       -1.19542
H          3.50054       -5.16275       -5.01046
H          2.33914       -1.11908       -3.36858
