46

C          1.06200        0.19475       -0.06242
C          0.65144       -1.23786        0.20999
O          1.20356       -1.67194        1.46158
C          2.35592       -2.38170        1.39030
O          2.97118       -2.62939        0.35377
C          2.78484       -2.99670        2.73073
C          2.44479       -2.28174        4.03435
C          2.10183       -2.84600        5.21025
O          2.08103       -4.20516        5.44244
C          1.75797       -2.03751        6.37857
C          1.32167       -2.58735        7.59123
C          1.04960       -1.76519        8.68919
C          1.21050       -0.38390        8.58523
C          1.62785        0.17630        7.37951
C          1.88806       -0.65878        6.29290
O          2.31379       -0.05379        5.10162
C          2.64996       -0.80547        3.98624
O          3.17249       -0.27403        3.01070
C          2.36729       -4.45728        2.62224
C          3.23465       -5.46481        2.42354
O          4.58215       -5.27186        2.20736
C          2.80241       -6.85720        2.50786
C          3.67471       -7.94355        2.37834
C          3.20295       -9.25321        2.51984
C          1.85549       -9.48936        2.79441
C          0.97574       -8.41744        2.91574
C          1.46182       -7.11970        2.76598
O          0.53164       -6.07558        2.87626
C          0.91146       -4.74863        2.75449
O          0.07402       -3.85406        2.76723
H          0.72716        0.84913        0.74881
H          0.62963        0.54968       -1.00239
H          2.15134        0.28498       -0.11882
H         -0.43787       -1.30436        0.29634
H          0.94421       -1.89417       -0.61808
H          3.88341       -2.93312        2.70160
H          2.91390       -4.59095        5.11642
H          1.18733       -3.66235        7.69293
H          0.71410       -2.20646        9.62480
H          1.00782        0.25310        9.44248
H          1.75486        1.25111        7.28945
H          4.69161       -4.55711        1.54967
H          4.73114       -7.78258        2.17444
H          3.89112      -10.08936        2.42037
H          1.49276      -10.50745        2.91121
H         -0.07624       -8.58893        3.12543
