28

O          1.49907        1.40335        1.17164
C          2.45758        0.84734        0.64151
C          2.99506        1.33284       -0.67787
C          3.37813        2.80222       -0.66567
S          4.90843        3.10429        0.26975
O          2.99610       -0.26795        1.18321
C          4.36622       -0.67480        0.99072
C          4.47715       -1.92878        0.12569
O          4.18511       -1.65813       -1.26104
C          2.92612       -1.94469       -1.68130
O          2.02549       -2.34032       -0.95188
C          2.76095       -1.80557       -3.17727
C          3.29668       -0.53421       -3.82049
S          5.10262       -0.49145       -4.01998
H          3.82665        0.73813       -1.04814
H          2.17657        1.18438       -1.39312
H          3.56039        3.12703       -1.69591
H          2.58094        3.42626       -0.25297
H          4.40228        2.84577        1.48597
H          4.97744        0.14027        0.59978
H          4.74901       -0.90536        1.99121
H          5.51463       -2.28017        0.15231
H          3.85098       -2.73911        0.51466
H          3.15728       -2.70456       -3.65957
H          1.67540       -1.80646       -3.34827
H          2.87290       -0.44564       -4.82650
H          2.98975        0.35647       -3.27082
H          5.40155       -0.37000       -2.71675
