40

C          1.17867       -0.26346       -0.43837
C          0.89875       -1.28894        0.64992
C          1.28789       -0.80974        2.05091
C          0.57318        0.45892        2.52933
C         -0.95293        0.34970        2.63393
C         -1.47020       -0.70621        3.61953
C         -0.96092       -0.55466        5.05643
C         -1.41922        0.72244        5.76805
C         -2.90179        0.77173        6.16202
C         -3.46896       -0.40086        6.98509
N         -3.18401       -0.41611        8.43247
C         -3.88370       -1.54658        9.05450
C         -1.76327       -0.48956        8.75675
H          0.54385        0.62085       -0.32921
H          0.97631       -0.69462       -1.42384
H          2.22522        0.05659       -0.41647
H         -0.15849       -1.57342        0.62264
H          1.46964       -2.19825        0.42548
H          1.11251       -1.62453        2.76308
H          2.36905       -0.62267        2.06960
H          0.98899        0.74694        3.50197
H          0.81820        1.29000        1.85807
H         -1.35088        1.33189        2.91386
H         -1.37289        0.13729        1.64368
H         -2.56621       -0.68519        3.61420
H         -1.18956       -1.70198        3.25590
H         -1.26064       -1.43671        5.63126
H          0.13421       -0.57943        5.05938
H         -0.79210        0.86472        6.65055
H         -1.20475        1.59459        5.13954
H         -3.09279        1.71031        6.69770
H         -3.49109        0.83909        5.23759
H         -4.56059       -0.32443        6.88227
H         -3.19942       -1.35738        6.52451
H         -3.52821       -2.51032        8.67121
H         -3.74378       -1.53657       10.14197
H         -4.96283       -1.47998        8.88106
H         -1.24104       -1.26252        8.18252
H         -1.28410        0.47853        8.59572
H         -1.61003       -0.70362        9.82163
