11

O          0.97426       -0.02935       -0.25365
C          2.18997        0.02386       -0.14043
O          2.92590       -1.07295        0.15537
C          2.98956        1.28475       -0.24449
C          2.60547        2.11008       -1.42584
O          2.27971        3.28549       -1.40872
O          2.76715        1.45943       -2.59455
H          3.88962       -0.92929        0.20222
H          2.82219        1.86264        0.67063
H          4.06198        1.07836       -0.31453
H          2.48267        2.10572       -3.27641
