33

C         -0.10894        0.92340       -0.63651
C          0.77065        0.47289       -1.79053
O          1.16193       -0.86068       -1.53111
P          2.13150       -1.67527       -2.52670
S          1.84527       -1.50127       -4.42947
O          1.99108       -3.16633       -1.91883
C          0.72013       -3.77227       -1.78818
C          0.04810       -3.33480       -0.49895
O          3.58534       -1.20830       -1.99614
C          4.55946       -2.14784       -1.56805
C          5.38990       -1.58036       -0.41473
S          4.44968       -1.37791        1.14544
C          3.42033        0.06136        0.72055
C          3.68010        1.22940        1.65006
H         -0.95015        0.23413       -0.50112
H         -0.50064        1.92962       -0.80523
H          0.44770        0.91987        0.30582
H          0.19317        0.51014       -2.71749
H          1.65066        1.11486       -1.88090
H          0.09085       -3.56231       -2.65849
H          0.89078       -4.85295       -1.75464
H         -0.52170       -2.41373       -0.65735
H         -0.66036       -4.09064       -0.15165
H          0.78241       -3.13498        0.28857
H          4.12363       -3.10245       -1.26177
H          5.21863       -2.35122       -2.41866
H          6.20672       -2.27580       -0.19402
H          5.83219       -0.61581       -0.68047
H          3.60481        0.39813       -0.30030
H          2.37607       -0.24906        0.80052
H          4.72637        1.54852        1.60810
H          3.06248        2.08159        1.34428
H          3.42161        0.98714        2.68508
