50

C          0.37309        1.01981       -0.43656
C         -0.00582        0.62055       -1.90453
C          0.25295       -0.89383       -1.97349
C         -0.99566       -1.68938       -1.56205
C         -2.05695       -1.48126       -2.64752
C         -3.21661       -2.46784       -2.72987
C         -4.37596       -2.08451       -3.29679
C         -4.75521       -0.63350       -3.46416
C         -3.90472        0.29205       -2.59475
C         -2.41852        0.01288       -2.85180
C         -1.50723        1.02359       -2.11645
C         -1.47359        2.37953       -2.86348
C         -0.01892        2.81816       -2.89454
C          0.78824        1.50750       -2.93440
O          2.12007        1.77017       -2.45496
C          1.03524        1.02944       -4.38963
C         -0.00294        0.30099       -5.11313
N         -0.75660       -0.30384       -5.75982
C         -5.28392       -3.05610       -3.99032
C         -5.08125       -4.51648       -3.66090
O         -5.85634       -5.36459       -4.11757
C         -3.95971       -4.94557       -2.75531
C         -2.88843       -3.90885       -2.45871
H         -0.15196        0.39224        0.29295
H          0.11799        2.05788       -0.20432
H          1.44452        0.88550       -0.24745
H          0.55672       -1.20745       -2.97666
H          1.09374       -1.17910       -1.32864
H         -1.36927       -1.38879       -0.57672
H         -0.70719       -2.74297       -1.48420
H         -1.51496       -1.75114       -3.56779
H         -5.80757       -0.49178       -3.19022
H         -4.65376       -0.35315       -4.51996
H         -4.14690        0.14891       -1.53400
H         -4.14960        1.33303       -2.83984
H         -2.31110        0.19725       -3.92257
H         -1.95968        1.19985       -1.12957
H         -2.10311        3.12577       -2.36721
H         -1.84158        2.28941       -3.89148
H          0.21281        3.39899       -1.99290
H          0.19563        3.48399       -3.73650
H          2.08625        2.41585       -1.72917
H          1.29785        1.90667       -4.99812
H          1.94154        0.40997       -4.41158
H         -6.33140       -2.80904       -3.79476
H         -5.10139       -2.95760       -5.06981
H         -3.47767       -5.81674       -3.21621
H         -4.41579       -5.28444       -1.81794
H         -2.63776       -4.00643       -1.39300
H         -1.97896       -4.17448       -3.01071
