57

O          1.39061       -0.38452       -0.27916
C          2.61127       -0.37744       -0.41128
C          3.56141        0.15996        0.68171
O          3.53030       -0.38630        1.98911
C          2.41546       -1.20121        2.33499
C          1.22195       -0.54519        3.06071
O          0.43015        0.46198        2.46321
C          0.98140        1.69294        2.03909
C          1.87113        2.53141        2.95994
O          3.09862        1.93705        3.36769
C          3.21355        1.57211        4.73049
C          2.31106        2.24791        5.77721
O          1.19186        1.80108        6.04233
N          2.72432        3.40449        6.40986
C          4.08985        3.59243        6.74132
C          4.99750        4.06829        5.78904
I          4.43181        5.11018        4.05811
C          6.36096        3.94783        6.02188
C          6.83576        3.51138        7.26817
I          8.94419        3.33088        7.32490
C          5.94420        3.24235        8.33256
C          6.48377        3.00472        9.70566
O          7.57563        2.56479       10.01389
O          5.66362        3.42294       10.68082
C          4.55629        3.23212        8.03433
I          3.04874        2.52139        9.42793
N          3.27455       -0.97158       -1.47622
C          2.56769       -1.88339       -2.30967
C          1.45517       -1.49071       -3.06453
I          0.85784        0.51503       -3.37214
C          0.74684       -2.44502       -3.78575
C          1.16941       -3.78666       -3.82452
I         -0.11838       -4.98341       -5.02693
C          2.32904       -4.22169       -3.13200
C          2.77928       -5.64876       -3.28964
O          2.36316       -6.47359       -4.08009
O          3.76584       -6.04136       -2.47773
C          3.01224       -3.24128       -2.35719
I          4.75816       -3.65412       -1.08669
H          3.42824        1.24399        0.74401
H          4.59673        0.05516        0.33564
H          2.09209       -1.82562        1.49893
H          2.82918       -1.91995        3.05536
H          0.51845       -1.36985        3.23474
H          1.48107       -0.22624        4.06448
H          0.11164        2.32473        1.81843
H          1.45260        1.56688        1.07121
H          2.17459        3.39658        2.35611
H          1.29130        2.94813        3.78305
H          3.07707        0.49274        4.83353
H          4.26570        1.67428        5.00635
H          2.07199        3.54109        7.17946
H          7.06091        4.21210        5.22986
H          6.13168        3.17835       11.50824
H          4.20757       -1.28445       -1.22419
H         -0.13506       -2.13548       -4.34602
H          3.94539       -6.96586       -2.75166
