43

C          2.55553       -0.04272        0.00893
C          1.05688       -0.01245        0.01473
C          0.32836       -1.19811       -0.09304
C         -1.07449       -1.18076       -0.10087
C         -1.79822        0.01784        0.01600
C         -3.30489        0.09670       -0.01400
C         -4.07207       -1.02431       -0.01699
C         -5.58034       -1.12174       -0.05791
N         -6.02766       -1.83417       -1.27049
C         -7.43121       -1.51611       -1.58392
C         -8.24571       -2.47430       -0.73957
C         -7.42932       -3.75085       -0.79423
C         -6.00136       -3.29886       -1.09571
C         -4.03237        1.39510       -0.06472
C         -3.98084        2.19165       -1.20629
C         -4.67386        3.39889       -1.20997
C         -5.40717        3.76596       -0.08767
C         -5.40774        2.91236        1.00314
N         -4.73195        1.74430        1.04503
C         -1.04163        1.19818        0.15104
C          0.35967        1.18755        0.14159
H          2.92607       -0.56947        0.89390
H          2.92009       -0.54902       -0.89088
H          2.97750        0.96784        0.01429
H          0.84587       -2.15133       -0.17807
H         -1.57367       -2.13848       -0.20615
H         -3.60529       -1.99971        0.03375
H         -5.93063       -1.61883        0.85612
H         -6.03277       -0.12758       -0.04784
H         -7.60613       -1.71609       -2.64864
H         -7.69955       -0.46819       -1.41201
H         -8.31821       -2.11579        0.29419
H         -9.26091       -2.61346       -1.12237
H         -7.49926       -4.30834        0.14482
H         -7.79556       -4.39649       -1.60120
H         -5.30676       -3.63701       -0.31867
H         -5.66597       -3.75913       -2.03283
H         -3.40873        1.87901       -2.07368
H         -4.64405        4.04390       -2.08327
H         -5.96667        4.69418       -0.06307
H         -5.97201        3.15078        1.90008
H         -1.52856        2.16349        0.27031
H          0.89431        2.13005        0.23577
