40

O          0.97925       -0.06695       -0.07132
P          2.52760       -0.06695       -0.07132
O          2.43004        0.96314       -1.33596
O          2.60681        1.05821        1.09068
O          4.25760       -0.06695       -0.07132
P          4.83426        1.00495       -1.30070
O          6.01264        1.39675       -0.39325
O          5.45442       -0.26872       -2.12560
O          5.41092        2.07686       -2.53008
C          5.30805        3.47454       -2.19951
C          3.88669        3.93276       -1.82971
O          3.46993        3.41226       -0.54906
C          2.27593        4.15798       -0.20330
N          1.97292        4.04447        1.20787
C          2.79483        3.60620        2.21115
N          2.13212        3.37832        3.32814
C          0.83338        3.74418        3.05407
C         -0.35408        3.72684        3.78221
O         -0.46187        3.23776        5.05365
N         -1.50483        4.17594        3.24911
C         -1.44982        4.62670        1.97713
N         -0.38893        4.65702        1.13982
C          0.72198        4.20151        1.74929
C          2.50925        5.57382       -0.71298
C          3.72442        5.44057       -1.62309
O          4.85027        6.00737       -0.95500
H          1.49727        1.26932       -1.28175
H          2.03252        0.84451        1.85311
H          6.37935       -0.33583       -1.81416
H          6.01521        3.68389       -1.39159
H          5.64070        4.02295       -3.08684
H          3.17157        3.55965       -2.57456
H          1.44234        3.69015       -0.74433
H          3.84490        3.38881        2.05198
H         -1.41207        3.35995        5.21984
H         -2.38344        5.01227        1.57456
H          2.67368        6.28876        0.10143
H          1.62624        5.90793       -1.26957
H          3.59831        5.97615       -2.56805
H          5.02662        5.48898       -0.14689
