46

C          1.51205       -0.08209       -0.37391
O          0.94768       -0.49479        0.86551
C          1.68252       -1.35167        1.63511
C          1.03395       -1.80760        2.78415
C          1.67075       -2.69281        3.66380
C          2.96100       -3.17808        3.40276
N          3.56203       -4.11045        4.27800
N          2.95995       -5.20322        4.18542
C          3.41730       -6.26293        5.09704
C          3.00777       -5.95772        6.53302
C          2.84024       -7.09944        7.50764
O          2.91807       -4.80527        6.97268
C          2.93281       -7.61224        4.55462
O          3.76230       -8.48285        4.25222
N          1.61332       -7.99929        4.48840
C          0.48789       -7.29904        4.95165
C         -0.23257       -7.88471        6.00106
C         -1.22267       -7.15909        6.66620
C         -1.51384       -5.85822        6.26831
C         -0.88650       -5.32490        5.14459
C          0.06675       -6.06727        4.44091
O          0.46510       -5.48783        3.26764
C          0.72410       -6.36898        2.17843
C          3.60535       -2.67696        2.26929
N          4.97515       -3.06237        1.98738
O          5.26111       -4.27002        2.01837
O          5.75787       -2.15609        1.67976
C          2.98457       -1.77405        1.38154
H          0.81279        0.61673       -0.84367
H          1.63795       -0.93555       -1.04840
H          2.45797        0.44838       -0.22564
H          0.01804       -1.47922        2.99641
H          1.14195       -3.03426        4.55146
H          4.51548       -6.30086        5.08477
H          3.64569       -7.06793        8.24486
H          1.87595       -6.98429        8.01118
H          2.85926       -8.07625        7.02447
H          1.55001       -9.01225        4.46713
H          0.01437       -8.88042        6.36149
H         -1.74432       -7.59557        7.51447
H         -2.24750       -5.26790        6.81138
H         -1.15747       -4.33057        4.79813
H          1.74550       -6.75587        2.21647
H         -0.00383       -7.18466        2.12312
H          0.64470       -5.78339        1.25731
H          3.53500       -1.42163        0.51509
