27

C          1.00005        0.06466       -0.15267
C          0.49229        0.57744        1.18920
C          0.90822        2.02700        1.46826
O          0.29508        2.89210        0.50984
C          0.46631        2.51780        2.85397
C          1.05094        1.76026        4.05216
C          2.58883        1.71322        4.11959
C          3.20099        3.10644        4.27049
C          3.03142        0.82391        5.28443
H          0.57275        0.62721       -0.98780
H          0.72041       -0.98595       -0.28215
H          2.09105        0.13345       -0.20906
H         -0.60161        0.49868        1.19429
H          0.87648       -0.08719        1.96955
H          1.99184        2.14312        1.36073
H          0.72365        2.73422       -0.34841
H          0.70100        3.58613        2.94364
H         -0.62960        2.47175        2.91458
H          0.66531        2.22674        4.96850
H          0.65603        0.73721        4.05405
H          2.98051        1.26095        3.20133
H          2.81955        3.61245        5.16399
H          4.29099        3.04358        4.35902
H          2.98122        3.73536        3.40262
H          2.64228       -0.19293        5.16529
H          4.12374        0.75782        5.32986
H          2.67446        1.21471        6.24320
