31

C          1.04745       -0.00904        0.18043
O          0.27827        1.18319        0.26732
C          0.79235        2.20106        1.02293
C         -0.11867        3.21143        1.33204
C          0.28667        4.33201        2.05325
C          1.61146        4.44644        2.47348
C          2.53004        3.41905        2.22712
N          3.89357        3.51768        2.61059
C          4.43357        4.31405        3.65461
C          5.63376        4.98901        3.36837
C          6.27203        5.77894        4.32815
C          5.73297        5.89211        5.60524
C          4.57138        5.19266        5.92816
C          3.93915        4.37882        4.97182
C          2.75190        3.63933        5.44386
O          1.89306        4.08332        6.18624
O          2.75183        2.35201        5.05579
C          2.11475        2.31474        1.46045
H          0.50045       -0.71081       -0.45703
H          1.16083       -0.46906        1.16752
H          2.01995        0.16642       -0.28959
H         -1.14991        3.12878        0.99818
H         -0.42529        5.12061        2.28087
H          1.91273        5.34446        3.00628
H          4.29946        2.58438        2.67881
H          6.06238        4.92089        2.37004
H          7.18577        6.31015        4.07273
H          6.22040        6.51430        6.35179
H          4.16313        5.26909        6.93448
H          1.89607        2.01359        5.39274
H          2.84832        1.55760        1.20769
