29

C          1.30855       -1.04714        0.19411
C          0.46456       -0.84730        1.21582
C         -1.01876       -0.54759        1.13449
C         -1.77004       -1.88304        1.25464
O         -1.35700        0.24043        2.28011
C         -1.52493        0.21472       -0.11713
C         -1.17065        1.71130       -0.21731
C          0.29986        1.98785       -0.33856
C          0.98180        2.30528       -1.45531
C          2.47987        2.43336       -1.42619
C          0.33170        2.50764       -2.79350
H          0.98934       -0.99686       -0.84211
H          2.36001       -1.25015        0.37526
H          0.88131       -0.92429        2.21899
H         -1.47794       -2.42374        2.16354
H         -2.85087       -1.71935        1.33307
H         -1.57904       -2.53298        0.39344
H         -1.16011       -0.28486        3.07308
H         -1.21790       -0.30255       -1.03474
H         -2.62401        0.17678       -0.10989
H         -1.70960        2.12782       -1.07660
H         -1.55757        2.25025        0.65579
H          0.84964        1.88329        0.59639
H          2.92843        1.74243       -2.14835
H          2.78365        3.45313       -1.67963
H          2.89699        2.19031       -0.44279
H         -0.11544        1.57565       -3.15290
H         -0.44011        3.28224       -2.73818
H          1.06122        2.83606       -3.54168
