19

O         -1.85482        0.03317       -0.39507
C         -0.65464        0.03788       -0.18165
N          0.08764        1.16051        0.15390
C          1.49345        0.86622        0.11286
C          1.53492       -0.65197        0.23245
N          0.22168       -1.04082       -0.23647
C         -0.19517       -2.42339       -0.41417
C          0.23678       -2.99891       -1.76310
O          1.64252       -3.23925       -1.79887
H         -0.33641        2.07617        0.08931
H          2.02900        1.38534        0.91030
H          1.86895        1.19566       -0.86210
H          1.62902       -0.96616        1.27744
H          2.33356       -1.09624       -0.36355
H          0.21749       -3.00646        0.41575
H         -1.28829       -2.46340       -0.35358
H         -0.25669       -3.96147       -1.92683
H         -0.02715       -2.33324       -2.59198
H          2.05725       -2.40400       -2.07230
