18

N          0.71449        0.31137       -0.30963
C          0.25363        0.94799        0.78525
O         -0.95368        1.08258        0.95850
N          1.14514        1.36883        1.71513
C          2.54243        1.52511        1.68676
C          3.31098        1.52568        0.51946
C          4.69885        1.69919        0.58231
C          5.32191        1.88511        1.81310
Cl         7.02673        2.09618        1.88798
C          4.56737        1.91262        2.98164
C          3.18097        1.74217        2.91569
H         -0.02840       -0.08020       -0.87523
H          1.48709       -0.32036       -0.15179
H          0.67478        1.64549        2.56888
H          2.85786        1.44348       -0.46333
H          5.28174        1.70293       -0.33526
H          5.04711        2.06702        3.94452
H          2.61002        1.76531        3.84124
