46

C          2.56783       -0.06107        0.02410
C          1.06977        0.02376        0.01443
C          0.31109       -1.14841       -0.03432
C         -1.08110       -1.08017       -0.07183
C         -1.73710        0.16152       -0.05604
S         -3.52411        0.07362       -0.16106
O         -3.75642       -0.45589       -1.49462
O         -3.88851       -0.68454        1.02450
C         -4.31892        1.70205       -0.05706
C         -5.82377        1.38643       -0.17650
O         -6.34094        0.28133       -0.21472
O         -6.54706        2.54301       -0.24273
C         -7.97141        2.50867       -0.48606
C         -8.28950        1.94922       -1.86800
C         -8.74402        1.83543        0.64117
C         -4.05187        2.33569        1.32504
C         -4.37246        3.82661        1.41467
C         -3.76344        4.61940        0.26743
C         -4.18138        4.08254       -1.09416
C         -3.91075        2.58459       -1.26249
C         -0.98833        1.33290        0.02040
C          0.41124        1.25978        0.04850
H          2.90988       -0.61090        0.90672
H          2.92062       -0.57338       -0.87724
H          3.02698        0.93243        0.04548
H          0.79775       -2.12155       -0.05234
H         -1.65831       -2.00336       -0.12060
H         -8.27193        3.56350       -0.49205
H         -8.02753        0.89092       -1.95500
H         -9.35433        2.05420       -2.09719
H         -7.71369        2.48191       -2.63290
H         -8.46096        2.26720        1.60691
H         -9.82209        1.96542        0.50281
H         -8.54404        0.76217        0.69949
H         -4.62522        1.80978        2.09985
H         -3.00410        2.20978        1.61260
H         -3.99436        4.21828        2.36672
H         -5.45683        3.98041        1.43916
H         -2.67063        4.60250        0.34889
H         -4.07095        5.66866        0.35128
H         -3.64878        4.63304       -1.87910
H         -5.24320        4.29551       -1.25920
H         -2.84950        2.47085       -1.49275
H         -4.42527        2.24171       -2.17049
H         -1.43424        2.31755        0.05439
H          0.98916        2.18138        0.09157
