27

C          0.75954       -0.09937       -0.25446
C          0.28941        1.21347        0.38010
O          0.92594        2.32601       -0.28093
P          2.65594        2.32601       -0.28093
C          2.56797        4.20295       -0.49362
O          2.72866        2.10349        1.23814
F          4.29594        2.32601       -0.28093
C         -1.26060        1.40568        0.37258
C         -1.93313        0.35401        1.27958
C         -1.61120        2.80282        0.92616
C         -1.84586        1.28744       -1.04485
H          0.59672       -0.10146       -1.33610
H          0.26704       -0.97029        0.18533
H          1.83622       -0.23760       -0.10846
H          0.59976        1.21894        1.43092
H          1.81926        4.61370        0.18956
H          3.54755        4.62409       -0.25426
H          2.30490        4.42273       -1.52988
H         -1.51685        0.38338        2.29286
H         -3.01151        0.53344        1.36117
H         -1.80621       -0.66244        0.89403
H         -1.23024        3.60129        0.28029
H         -2.69687        2.93615        1.00242
H         -1.18908        2.94741        1.92665
H         -1.37558        1.99800       -1.73254
H         -1.71110        0.28048       -1.45404
H         -2.92340        1.48920       -1.04234
