38

C          0.72062       -0.55000        0.38676
C          0.44262        0.40563        1.54021
C          1.14562        1.76654        1.42395
N          0.50564        2.69351        0.48443
C         -0.37144        3.72104        1.06572
C          0.38145        4.95650        1.58071
C          0.86664        5.89585        0.48656
C          0.81990        2.54707       -0.86685
O          1.56981        1.66811       -1.27661
S          0.05505        3.65333       -1.99462
C          1.00083        3.31124       -3.50083
C          2.48512        3.56959       -3.39643
C          3.38536        2.49586       -3.49270
C          4.75801        2.69798       -3.35852
C          5.25108        3.98088       -3.14034
C          4.37165        5.06013       -3.05903
C          2.99519        4.85805       -3.18826
H          0.19621       -0.24275       -0.52241
H          0.37020       -1.55711        0.63332
H          1.79305       -0.61390        0.17342
H         -0.63964        0.53915        1.64764
H          0.79939       -0.07951        2.45692
H          1.15581        2.23787        2.41426
H          2.19451        1.62803        1.13642
H         -1.15070        4.01863        0.35906
H         -0.89791        3.25391        1.90785
H         -0.29715        5.52381        2.22923
H          1.23575        4.65808        2.19857
H          0.04273        6.19869       -0.16770
H          1.28755        6.80523        0.92752
H          1.65116        5.43281       -0.11817
H          0.80262        2.27888       -3.81060
H          0.59807        3.94729       -4.29765
H          3.01319        1.48198       -3.63152
H          5.43550        1.84995       -3.40844
H          6.32007        4.13716       -3.02621
H          4.75912        6.06023       -2.88490
H          2.32339        5.70963       -3.10954
