24

N          0.95832        0.03723        0.29397
C          0.16334        0.54600        1.28148
S         -1.49588        0.40719        1.07176
N          0.89549        1.12956        2.29168
N          0.31483        1.11519        3.39941
C          1.13394        1.67193        4.48596
C          2.02233        0.59211        5.02986
C          3.33284        0.74530        5.27343
C          4.13158       -0.33132        5.74497
C          4.01855       -1.70446        5.52390
C          5.07063       -2.35505        6.21340
C          5.76848       -1.34599        6.82312
N          6.91536       -1.36495        7.67366
O          7.32355       -0.28769        8.12399
O          7.41077       -2.47891        7.89698
O          5.24146       -0.12872        6.53956
H          0.53447       -0.39597       -0.51501
H          1.96340        0.11034        0.35667
H          1.70422        2.54495        4.14503
H          0.46106        2.01159        5.28071
H          1.52955       -0.35971        5.21503
H          3.81936        1.70718        5.13615
H          3.25708       -2.17676        4.91649
H          5.28533       -3.41377        6.26080
