75

C          1.78530        0.05991       -1.21770
C          0.80656       -0.39526       -2.29929
C          1.11728       -1.84347       -2.69133
C         -0.67455       -0.28539       -1.88188
C         -1.15596        1.11291       -1.46052
C         -0.97597        2.08825       -2.61955
O         -1.78503        2.22362       -3.53367
N         -2.58756        1.06913       -1.14909
C         -3.24950        0.81036        0.01114
O         -4.31437        0.19122       -0.06978
C         -2.70588        1.23822        1.39688
C         -1.90202        0.14690        2.12727
C         -0.39272       -0.01584        1.89060
C          0.45225        1.18235        2.31956
C          0.10069       -1.26112        2.64226
N         -2.12923        2.58626        1.37109
C         -2.86288        3.71351        1.67543
O         -2.93514        4.58981        0.81225
C         -3.50877        3.88570        3.07336
C         -5.04343        4.02533        3.02255
C         -5.85331        2.84490        2.44745
C         -5.98385        1.68393        3.43540
C         -7.25883        3.31324        2.04865
N         -2.98955        2.93247        4.04111
C         -2.73843        3.20709        5.35323
O         -1.92604        2.53646        5.97463
O         -3.41714        4.27633        5.82774
C         -3.02783        4.71741        7.13605
C         -3.96518        4.20893        8.20258
C         -4.89947        5.06487        8.80271
C         -5.73875        4.59904        9.81740
C         -5.65945        3.27250       10.23690
C         -4.74146        2.41006        9.64271
C         -3.89797        2.87575        8.63291
H          1.70972       -0.56409       -0.32209
H          1.61683        1.10165       -0.93074
H          2.81654       -0.01225       -1.58070
H          0.96890        0.22915       -3.18631
H          0.97710       -2.52239       -1.84270
H          0.46189       -2.17680       -3.50283
H          2.15208       -1.94181       -3.03552
H         -1.28825       -0.62281       -2.72991
H         -0.88445       -1.00059       -1.07679
H         -0.60613        1.48728       -0.59925
H         -0.01729        2.63546       -2.62900
H         -3.16447        0.83285       -1.95418
H         -3.62330        1.32687        1.98056
H         -2.04764        0.28460        3.20676
H         -2.38372       -0.81468        1.89929
H         -0.22208       -0.19927        0.83333
H          1.51985        0.95258        2.22445
H          0.27208        2.05717        1.69209
H          0.25896        1.45509        3.36196
H         -0.43714       -2.15630        2.31208
H          1.16735       -1.43114        2.46088
H         -0.04678       -1.15568        3.72281
H         -1.71969        2.78590        0.46847
H         -3.12452        4.86174        3.40562
H         -5.42217        4.26075        4.02531
H         -5.25855        4.90891        2.40572
H         -5.37686        2.48891        1.52931
H         -6.50663        1.99635        4.34573
H         -6.55428        0.86216        2.98778
H         -5.01357        1.27922        3.73018
H         -7.20596        4.10908        1.29801
H         -7.83302        2.48825        1.61218
H         -7.81390        3.69435        2.91210
H         -2.29694        2.28456        3.69784
H         -1.99073        4.45301        7.37914
H         -3.05050        5.81348        7.11323
H         -4.97443        6.10447        8.49187
H         -6.45318        5.27276       10.28324
H         -6.31166        2.91075       11.02722
H         -4.67654        1.37479        9.96726
H         -3.17824        2.18997        8.19014
