16

O          0.86515        0.12377        0.13412
C          2.08478        0.21508        0.10548
C          2.89666        0.03286        1.31969
C          4.09633        0.74990        1.41168
C          4.86518        0.67987        2.57816
C          4.44571       -0.10417        3.65544
C          3.26207       -0.83684        3.56703
C          2.49800       -0.76490        2.39371
N          1.34280       -1.63464        2.29132
O          0.47475       -1.52102        3.16746
O          1.37507       -2.50181        1.40702
H          2.62303        0.49615       -0.81516
H          4.43171        1.38645        0.59523
H          5.79137        1.24745        2.65245
H          5.04752       -0.14990        4.56126
H          2.94973       -1.46487        4.39941
