14

C          1.02500       -0.14626       -0.07087
O          0.54680       -1.21037       -0.89213
C          0.94268       -1.13118       -2.18337
O          1.64264       -0.26224       -2.67435
C          0.36935       -2.33064       -2.98029
O         -0.33061       -3.19958       -2.48931
O          0.76523       -2.25145       -4.27153
C          0.28704       -3.31556       -5.09279
H          0.65009       -0.30587        0.94392
H          0.64841        0.81614       -0.43153
H          2.11913       -0.14718       -0.03970
H          0.66363       -4.27796       -4.73213
H         -0.80710       -3.31463       -5.12397
H          0.66195       -3.15595       -6.10758
