23

C          1.08566        0.05043        0.01091
C          0.57899        1.37916        0.54771
O          1.05232        2.43413       -0.27656
C          2.44841        2.63860       -0.43631
C          3.32293        1.58218       -0.67160
C          4.68032        1.78361       -0.78599
C          5.24162        3.04634       -0.68882
B          6.82156        3.27499       -0.79618
O          7.73606        2.10493       -1.00748
O          7.38824        4.65941       -0.68553
C          4.36612        4.09935       -0.49422
F          4.81917        5.35423       -0.41808
C          3.00273        3.87737       -0.36823
F          2.21489        4.96806       -0.19689
H          0.72899       -0.08999       -0.98807
H          0.72900       -0.74450        0.63201
H          2.15566        0.05043        0.01091
H         -0.49101        1.37916        0.54771
H          0.93566        1.51959        1.54670
H          2.93175        0.59071       -0.76578
H          5.31896        0.94180       -0.95453
H          7.19613        1.26474       -1.05806
H          8.38354        4.62025       -0.77414
