36

C          0.90872       -0.03325        0.11637
C          0.22427       -0.83403       -0.71633
C         -1.24946       -0.74337       -0.94164
C          0.97740       -1.90451       -1.41525
O          1.86960       -2.56021       -0.89803
O          0.54558       -1.98991       -2.69623
C          1.19694       -2.95764       -3.54012
C          2.15669       -2.26141       -4.52510
C          3.30966       -1.51397       -3.81288
C          4.34273       -2.40364       -3.13302
C          2.71193       -3.24221       -5.58015
C          1.68285       -3.84697       -6.54411
C          0.85171       -2.84462       -7.34786
C          1.68908       -1.90591       -8.20266
H          0.41822        0.75931        0.67140
H          1.98016       -0.14937        0.26112
H         -1.46979       -0.39650       -1.95581
H         -1.71802       -1.72281       -0.79755
H         -1.72289       -0.04849       -0.23956
H          1.69863       -3.74125       -2.96198
H          0.38895       -3.44952       -4.09072
H          1.58364       -1.47691       -5.03565
H          3.83217       -0.89122       -4.55052
H          2.89868       -0.81462       -3.07652
H          4.93964       -2.95050       -3.86919
H          5.03215       -1.79014       -2.54387
H          3.88371       -3.13057       -2.45927
H          3.48695       -2.73688       -6.16981
H          3.21463       -4.07519       -5.07229
H          2.21989       -4.49776       -7.24642
H          1.00261       -4.50509       -5.99159
H          0.17866       -3.40685       -8.00663
H          0.20961       -2.25948       -6.68087
H          2.34930       -2.46715       -8.87141
H          1.03787       -1.27762       -8.81880
H          2.30287       -1.24180       -7.58702
