38

C          1.82654       -0.04074       -0.09504
O          1.52271       -1.40322       -0.41334
C          0.85790       -1.62640       -1.58356
O          0.61918       -0.77204       -2.42369
C          0.35466       -3.07567       -1.67295
C          0.89378       -4.01304       -0.58407
N         -1.12851       -3.20906       -1.80605
C         -1.77911       -3.64127       -2.98025
O         -3.00277       -3.64972       -3.12947
C         -1.00576       -4.08004       -4.16454
C         -1.27897       -3.45580       -5.38838
C         -0.63276       -3.87889       -6.54950
C          0.28362       -4.92827       -6.49093
C          0.53786       -5.57130       -5.27768
C         -0.12215       -5.16377       -4.11545
C         -1.95121       -2.86852       -0.66765
C         -3.01465       -3.70796       -0.29316
C         -3.81984       -3.41106        0.81220
C         -3.57490       -2.26402        1.55414
F         -4.35592       -1.99243        2.60947
C         -2.53929       -1.41133        1.19637
Cl        -2.23656        0.03169        2.08880
C         -1.73388       -1.71132        0.09295
H          1.58095        0.11511        0.96011
H          1.25268        0.68063       -0.68384
H          2.89712        0.12560       -0.23382
H          0.82951       -3.41608       -2.59570
H          0.54531       -3.72826        0.41425
H          0.57104       -5.04423       -0.76496
H          1.98916       -4.00280       -0.56612
H         -2.01191       -2.65263       -5.43862
H         -0.85493       -3.39851       -7.49935
H          0.78563       -5.25766       -7.39790
H          1.23815       -6.40257       -5.24543
H          0.04795       -5.70104       -3.18729
H         -3.22618       -4.61644       -0.85418
H         -4.63830       -4.06726        1.09072
H         -0.99753       -0.97265       -0.18970
