28

O          1.09825        0.07599        0.00297
C          2.31693        0.09717       -0.05410
O          3.05316        0.94473        0.68970
C          3.13370       -0.81526       -0.94870
C          3.97547       -1.78977       -0.13932
C          3.11916       -2.85340        0.51326
O          3.33699       -3.17476        1.68005
C          2.15259       -3.58509       -0.37866
C          1.23622       -4.54282        0.33444
O          1.13046       -5.71014       -0.04029
C          0.44648       -4.11394        1.52355
C          0.15710       -2.69405        1.92782
C         -0.93097       -3.52557        1.31852
C          1.43877       -2.66942       -1.34194
O          0.30721       -2.90851       -1.76261
C          2.24601       -1.54138       -1.96109
H          4.02015        0.90958        0.56585
H          3.79821       -0.15405       -1.52075
H          4.69788       -2.29952       -0.78761
H          4.54231       -1.27191        0.64176
H          2.79524       -4.21584       -1.01227
H          0.54064       -4.82124        2.34509
H          0.09527       -2.47843        2.99007
H          0.52243       -1.86075        1.34922
H         -1.25308       -3.27462        0.31322
H         -1.73343       -3.86850        1.96073
H          1.55176       -0.84008       -2.43882
H          2.86539       -1.98557       -2.74939
