50

N          1.07121       -0.24703        0.30860
C          0.41685       -0.84362       -0.78997
C          0.75026       -2.15334       -1.20193
C          1.94861       -2.91648       -0.84412
N          2.63563       -3.59400       -1.74267
C          3.54905       -4.27581       -1.02456
C          4.51095       -5.16220       -1.48840
C          5.37318       -5.73607       -0.55556
C          5.25894       -5.45685        0.81168
C          4.26033       -4.56717        1.29652
C          3.42929       -3.99199        0.32640
O          2.37887       -3.09304        0.45568
C          6.21506       -6.10983        1.74768
O          6.11006       -5.93418        2.95332
C          7.30655       -6.96432        1.20108
C          8.25737       -7.54275        2.05142
C          9.29914       -8.31772        1.52247
C          9.40081       -8.52020        0.14663
C          8.45238       -7.95986       -0.70162
C          7.40837       -7.19069       -0.16940
C          6.41811       -6.62377       -1.08722
O          6.46801       -6.87563       -2.28320
C          0.00631       -2.75430       -2.24328
C         -0.99445       -2.07842       -2.91782
C         -1.29968       -0.77369       -2.55021
C         -0.64214       -0.16191       -1.47314
C         -1.01866        1.24542       -1.14244
O         -0.45246        1.85379       -0.23875
C         -2.07054        1.93607       -1.92891
C         -2.45822        3.24127       -1.59749
C         -3.44060        3.89765       -2.34749
C         -4.03499        3.26142       -3.43602
C         -3.65066        1.96625       -3.77233
C         -2.67421        1.30687       -3.01253
C         -2.29328       -0.06107       -3.37232
O         -2.78869       -0.59892       -4.35641
H          0.77254        0.72528        0.46569
H          2.08369       -0.32661        0.28716
H          4.58004       -5.37579       -2.55005
H          4.15170       -4.33920        2.35202
H          8.19849       -7.39270        3.12766
H         10.03830       -8.76343        2.18491
H         10.21308       -9.11357       -0.26780
H          8.52750       -8.11880       -1.77678
H          0.26576       -3.75757       -2.58683
H         -1.49203       -2.56079       -3.75715
H         -1.99956        3.75471       -0.75448
H         -3.74203        4.90894       -2.08310
H         -4.79705        3.77017       -4.02240
H         -4.11342        1.47062       -4.62481
