62

C          1.27752       -0.66444       -0.89283
C          1.25623       -0.83389        0.61451
C          1.85038        0.35911        1.35992
C          1.12525        1.69445        1.17257
C         -0.38386        1.70554        1.42040
C         -0.88682        0.93458        2.63577
O          0.02194        0.89755        3.71515
P          0.31646        2.22430        4.57486
O         -0.35523        3.46229        4.08329
O         -0.03303        1.75765        6.07620
C         -1.26263        1.12056        6.36995
C         -2.25942        2.04313        7.07606
C         -2.58060        3.35156        6.34641
C         -3.20542        3.16494        4.96346
C         -4.68715        2.81269        4.95612
C         -5.55795        4.00636        5.30530
O          1.92207        2.30486        4.52380
C          2.71754        2.55972        5.66172
C          2.74695        4.02528        6.10663
C          1.49890        4.57937        6.80600
C          0.99296        3.76436        8.00125
C          1.36707        4.29881        9.37901
C          0.55349        5.52353        9.76721
H          0.64256        0.16749       -1.21080
H          0.90435       -1.57320       -1.37469
H          2.29568       -0.48144       -1.24850
H          0.23073       -1.03080        0.93765
H          1.83375       -1.72706        0.88041
H          1.89951        0.11093        2.42560
H          2.89387        0.49360        1.04969
H          1.59321        2.43094        1.83739
H          1.30690        2.07010        0.15824
H         -0.69234        2.75468        1.51982
H         -0.91413        1.33904        0.53287
H         -1.85219        1.33020        2.95244
H         -1.08802       -0.10412        2.35904
H         -1.70501        0.67084        5.47809
H         -1.02897        0.28942        7.04552
H         -3.18423        1.48716        7.26571
H         -1.85133        2.30483        8.05973
H         -3.23135        3.96395        6.97874
H         -1.65724        3.92859        6.23660
H         -3.04755        4.07536        4.37240
H         -2.68268        2.36934        4.44047
H         -4.95415        2.47442        3.94700
H         -4.89246        1.97825        5.63418
H         -5.35797        4.84335        4.62769
H         -6.61460        3.74079        5.21257
H         -5.38082        4.34454        6.32960
H          2.46982        1.86433        6.46587
H          3.74006        2.29836        5.36269
H          3.59986        4.16115        6.78213
H          2.93539        4.65139        5.22452
H          1.70538        5.61222        7.11032
H          0.69617        4.65471        6.06710
H         -0.09827        3.73267        7.94793
H          1.33171        2.72833        7.94989
H          1.15598        3.51019       10.11264
H          2.43902        4.51180        9.43534
H         -0.52022        5.33243        9.66051
H          0.74318        5.78359       10.81293
H          0.81081        6.38686        9.14810
