16

N          1.01267       -0.07303       -0.06713
C          2.27364       -0.07303       -0.06713
C          3.79364       -0.07303       -0.06713
C          4.30590       -1.09822       -1.04997
C          4.09201       -2.47030       -0.83733
C          4.49822       -3.40424       -1.79426
C          5.12760       -2.97489       -2.96217
Cl         5.61015       -4.12791       -4.14380
C          5.36020       -1.62107       -3.18127
C          4.94606       -0.69780       -2.22650
F          5.15848        0.60546       -2.45606
H          4.15332        0.93234       -0.31132
H          4.16172       -0.31368        0.93682
H          3.58347       -2.82213        0.05940
H          4.30803       -4.46253       -1.62917
H          5.84613       -1.27411       -4.08723
