12

F          1.54371       -1.37923        0.01567
C          0.38955       -0.69807        0.00875
C         -0.81440       -1.39597        0.00025
C         -2.01949       -0.69037       -0.00755
C         -2.01266        0.70775       -0.00638
C         -0.80071        1.40151        0.00264
C          0.39633        0.69186        0.00996
F          1.55712        1.36170        0.01810
H         -0.80591       -2.48138       -0.00034
H         -2.96432       -1.22926       -0.01457
H         -2.95217        1.25587       -0.01253
H         -0.78161        2.48680        0.00390
