43

C          0.32123       -1.36242        0.51753
O          0.01076       -1.39695       -1.31373
C          0.61651       -1.51698       -2.95652
O          1.27486       -0.69162       -3.55143
C          0.35573       -3.37292       -3.10750
C          1.15256       -3.84410       -4.12846
C          1.04683       -5.09847       -3.83564
C          0.20071       -5.29370       -2.60523
C         -0.88356       -4.61802       -1.08877
C         -0.85867       -3.52068       -1.39142
S         -2.01157       -1.55947       -0.91818
O         -3.12228       -1.45641       -1.85431
O         -2.27590       -1.63535        0.51231
N         -0.69371        0.26178       -1.22172
C          1.17615        0.01824       -1.13894
O          1.88282        0.96729       -0.79907
N          1.89915       -1.62761       -1.17764
C          0.77727       -3.01989       -1.43036
N          1.05027       -4.76038       -0.74778
C         -0.09929       -6.27110       -0.98505
O          0.33579       -7.47838       -0.52480
C         -0.28901       -8.59372       -1.14198
F         -1.61614       -8.57781       -0.88034
F         -0.13024       -8.53573       -2.48764
C         -1.62266       -5.97475       -2.19305
C         -1.86041       -4.20023       -2.95903
O         -2.90851       -3.95907       -3.81692
C         -3.90131       -4.95649       -3.85735
F         -3.39743       -6.06020       -4.46112
F         -4.27802       -5.30170       -2.60247
N         -0.91533       -2.55306       -2.60294
H         -0.05093       -2.30854        0.90746
H         -0.23582       -0.49336        0.89443
H          1.37897       -1.21934        0.77812
H          1.68880       -3.30408       -4.87666
H          1.48944       -5.91432       -4.39159
H          0.26700       -6.43147       -2.81572
H         -1.50465       -5.02030       -0.27264
H         -0.96262        0.91885       -0.49711
H          2.78495       -1.83307       -0.73853
H          0.14809       -9.52845       -0.78003
H         -2.26383       -6.80412       -2.48040
H         -4.77411       -4.60446       -4.41374
