16

N          0.64420       -0.24192       -0.11802
N          0.80994       -0.15660        1.27653
C         -0.19329        0.48393        2.05059
C         -1.20464        1.27946        1.49389
C         -2.12424        1.95021        2.30831
C         -2.02425        1.85112        3.69258
Cl        -3.15092        2.67822        4.69508
C         -1.00969        1.09338        4.26902
C         -0.09478        0.42328        3.45034
H          0.67332        0.69963       -0.51959
H          1.44724       -0.71783       -0.53751
H          1.09488       -1.02697        1.73711
H         -1.30342        1.37412        0.41661
H         -2.90922        2.54716        1.85257
H         -0.91772        1.02489        5.34932
H          0.70592       -0.14566        3.91665
