53

C          1.05803       -0.31528       -0.26790
C          0.53950       -0.27151       -1.67052
C          0.11311       -1.33040       -2.39430
C          0.17876       -2.81140       -2.14666
C         -1.11354       -3.53642       -2.28628
C         -2.00481       -4.03974       -1.41112
C         -1.80507       -4.17544        0.06515
N         -3.15198       -4.54842       -2.04261
C         -3.87230       -5.70034       -1.49518
N         -2.82814       -4.60506       -3.41800
C         -3.77103       -4.82496       -4.44402
C         -5.12616       -4.51129       -4.27319
C         -6.04529       -4.73874       -5.30237
C         -5.62118       -5.29710       -6.50662
C         -4.27632       -5.60523       -6.69164
C         -3.35581       -5.35402       -5.67225
C         -1.54166       -4.09797       -3.60402
O         -0.82538       -4.12768       -4.59222
C         -0.46043       -0.72451       -3.63242
O         -1.05533       -1.34404       -4.49920
N         -0.18976        0.63982       -3.58792
C         -0.59093        1.59622       -4.54258
C         -1.85031        1.48759       -5.14856
C         -2.28200        2.43580       -6.07804
C         -1.44052        3.48250       -6.44374
C         -0.17077        3.58239       -5.87662
C          0.24855        2.64915       -4.92235
N          0.48620        0.93780       -2.38442
C          0.23240        2.23699       -1.76384
H          0.94437       -1.30214        0.18848
H          0.49975        0.37831        0.37069
H          2.11630       -0.04202       -0.23764
H          0.91352       -3.23889       -2.84035
H          0.59531       -3.00284       -1.15269
H         -2.63320       -3.73777        0.62651
H         -1.73868       -5.24064        0.32486
H         -0.87333       -3.71657        0.40716
H         -3.19943       -6.55040       -1.34264
H         -4.32472       -5.43115       -0.53440
H         -4.68983       -6.03229       -2.14080
H         -5.46868       -4.04103       -3.35523
H         -7.08928       -4.46879       -5.16799
H         -6.33401       -5.48100       -7.30583
H         -3.93525       -6.03743       -7.62853
H         -2.31124       -5.60620       -5.84021
H         -2.52454        0.67758       -4.87767
H         -3.27238        2.34774       -6.51708
H         -1.76967        4.20976       -7.18134
H          0.49949        4.37880       -6.18925
H          1.25716        2.71640       -4.52398
H          0.74709        3.03259       -2.31086
H         -0.83839        2.46351       -1.73056
H          0.62355        2.28758       -0.74363
