31

C          1.38948       -0.54310        0.00151
C          0.62789        0.70269       -0.33833
C         -0.38796        0.59932       -1.44649
C          0.83954        1.89626        0.24714
C          1.93745        2.32359        1.17945
C          2.98216        3.21194        0.46130
C          2.57451        4.64472        0.13855
C          3.08171        5.71384        1.07600
C          1.86695        5.05139       -0.93912
C          1.28431        4.23201       -2.04769
O         -0.14967        4.33009       -2.23631
C         -1.01539        4.66683       -1.25220
O         -0.78178        5.00824       -0.10804
H          1.05697       -1.39287       -0.60468
H          1.21439       -0.81340        1.04884
H          2.46216       -0.41635       -0.16567
H         -1.24775        1.25466       -1.27245
H          0.07923        0.89422       -2.39429
H         -0.76833       -0.41924       -1.56253
H          0.17968        2.71189       -0.02052
H          1.49992        2.85772        2.03102
H          2.44870        1.44492        1.58919
H          3.87353        3.24771        1.10277
H          3.32478        2.71615       -0.45581
H          3.77682        6.37613        0.54561
H          2.25380        6.31588        1.46487
H          3.61833        5.29608        1.93243
H          1.67164        6.11843       -1.04617
H          1.72100        4.59331       -2.98561
H          1.54938        3.17449       -1.99193
H         -2.03937        4.56684       -1.64732
