30

C          0.43583        1.87792        0.38802
C          1.58321        1.38636       -0.51039
C          2.50550        0.36715        0.16694
C          2.13032       -1.10601       -0.03939
C          0.75002       -1.50311        0.48557
C         -0.29812       -1.59702       -0.62829
C         -1.72585       -1.65933       -0.08394
C         -2.51097       -0.34385       -0.16499
C         -1.90826        0.83566        0.60542
C         -0.95742        1.70616       -0.23345
H          0.58999        2.95371        0.55047
H          0.49018        1.43415        1.38692
H          1.23319        1.00130       -1.47337
H          2.19663        2.26453       -0.75372
H          2.59518        0.58229        1.23870
H          3.51314        0.49858       -0.24891
H          2.88133       -1.70372        0.49348
H          2.23204       -1.36930       -1.09932
H          0.43561       -0.83299        1.28919
H          0.82863       -2.49780        0.94449
H         -0.10044       -2.52189       -1.18650
H         -0.19730       -0.78908       -1.35633
H         -1.73100       -2.03005        0.94840
H         -2.28237       -2.39986       -0.67304
H         -3.50643       -0.54328        0.25325
H         -2.67743       -0.07272       -1.21460
H         -1.45232        0.48688        1.53749
H         -2.74313        1.48014        0.91258
H         -1.40912        2.70555       -0.30208
H         -0.89890        1.35496       -1.26832
