21

N          2.36808       -0.10531        0.18932
C          0.98469       -0.00421       -0.00778
C          0.23744       -1.19434        0.03285
C         -1.16557       -1.18794       -0.00963
C         -1.87370       -2.49043       -0.00369
O         -1.34696       -3.58783        0.00349
O         -3.21115       -2.35643       -0.01439
C         -1.85004        0.02788       -0.05007
C         -1.13109        1.22214       -0.04542
C          0.27534        1.20517       -0.00810
S          1.06047        2.79346       -0.04041
O          0.63483        3.46340       -1.25072
O          0.88278        3.40923        1.25621
O          2.65074        2.54985       -0.20421
H          2.78634       -0.96903       -0.14580
H          2.90225        0.71556       -0.10548
H          0.75579       -2.15044        0.10148
H         -3.54166       -3.27948       -0.01116
H         -2.93686        0.05776       -0.07668
H         -1.66924        2.16901       -0.06719
H          3.09517        3.39214        0.03342
