24

C          0.91442       -0.12534       -0.07701
C          0.28179        0.16846        1.06652
C         -1.17733        0.36862        1.19153
O         -1.66919        0.95696        2.14249
O         -1.84459       -0.21678        0.16862
C         -3.27654       -0.08064        0.17403
C         -3.95644       -1.35974        0.69469
C         -3.57282       -1.64583        2.15143
C         -5.49114       -1.28008        0.58400
C         -6.00078       -1.24980       -0.84987
H          0.38335       -0.24308       -1.01657
H          1.99342       -0.23970       -0.09506
H          0.83553        0.31525        1.98736
H         -3.59974        0.80366        0.73641
H         -3.55581        0.09496       -0.86958
H         -3.59892       -2.20973        0.09881
H         -3.83069       -0.80283        2.80147
H         -4.09622       -2.53184        2.52665
H         -2.50090       -1.84238        2.24912
H         -5.93459       -2.15383        1.07782
H         -5.86141       -0.39619        1.11778
H         -5.61730       -2.10136       -1.42065
H         -7.09443       -1.30302       -0.85849
H         -5.71276       -0.32820       -1.36288
