134

C          1.14284        0.24016       -0.56002
C          0.95186       -1.26077       -0.71204
C          1.40430       -2.03558        0.52761
C          0.65228       -1.65347        1.80636
C         -0.86137       -1.86406        1.70508
C         -1.24203       -3.33029        1.48015
C         -0.79923       -4.23382        2.63496
C         -1.43814       -3.82724        3.96636
C         -2.96613       -3.91981        3.91814
C         -3.43723       -5.35116        3.64346
C         -2.97762       -6.31536        4.74083
C         -3.52698       -5.90631        6.10970
C         -5.05772       -5.91516        6.11736
C         -5.60369       -7.32213        5.86254
C         -5.14408       -8.29926        6.94826
C         -5.57927       -7.82815        8.34187
C         -7.10169       -7.66757        8.43487
C         -7.83531       -8.95246        8.05004
C         -7.35988      -10.13640        8.88352
C         -7.80464      -10.00525       10.33759
C         -9.28790      -10.33325       10.50258
C         -9.65405      -11.74631       10.03408
O         -9.03179      -12.70201       10.89772
C         -7.73790      -13.05380       10.72988
O         -7.15193      -13.09981        9.65591
C         -7.08245      -13.36989       12.06228
C         -7.66158      -12.62508       13.28072
C         -9.15910      -12.82734       13.54843
C         -9.60796      -14.27400       13.33214
C         -9.09819      -15.17285       14.45222
C         -9.74574      -14.80982       15.78875
C        -11.27535      -14.88180       15.71656
C        -11.75160      -16.29243       15.35521
C        -11.29921      -17.31295       16.40293
C        -11.82584      -16.95088       17.79494
C        -13.35701      -16.93477       17.82419
C        -13.93544      -18.31663       17.50870
C        -13.47770      -19.36438       18.52737
C        -13.92799      -19.00961       19.94782
C        -15.45407      -18.96006       20.06895
C        -16.10549      -20.30865       19.74837
C        -15.63441      -21.42532       20.68476
C        -15.99230      -21.16192       22.15048
C        -17.50148      -21.08962       22.40308
C        -18.25857      -22.35829       22.00413
C        -17.77786      -23.58487       22.76365
H          0.52172        0.64806        0.24350
H          0.86161        0.75379       -1.48319
H          2.18850        0.47466       -0.33813
H         -0.09823       -1.47548       -0.94068
H          1.52786       -1.61045       -1.57566
H          1.29385       -3.10944        0.33445
H          2.47604       -1.87211        0.68802
H          1.06241       -2.23044        2.64314
H          0.85075       -0.60800        2.06369
H         -1.33469       -1.48041        2.61577
H         -1.28329       -1.25601        0.89879
H         -2.32575       -3.39830        1.33314
H         -0.81223       -3.70403        0.54563
H         -1.04298       -5.27312        2.38940
H          0.28987       -4.22654        2.74043
H         -1.03295       -4.45633        4.76598
H         -1.14605       -2.81135        4.24922
H         -3.37965       -3.54273        4.85939
H         -3.37962       -3.25029        3.15795
H         -4.52730       -5.35939        3.54262
H         -3.07741       -5.70812        2.67393
H         -3.28411       -7.33323        4.47962
H         -1.88570       -6.36841        4.79024
H         -3.11913       -6.57217        6.87660
H         -3.16881       -4.91516        6.40387
H         -5.41694       -5.51538        7.07067
H         -5.46917       -5.22618        5.37408
H         -6.69631       -7.27993        5.80679
H         -5.29816       -7.69879        4.88131
H         -5.53556       -9.29691        6.72304
H         -4.05714       -8.42914        6.93133
H         -5.20775       -8.52854        9.09673
H         -5.10036       -6.88081        8.60837
H         -7.36920       -7.35140        9.44734
H         -7.45004       -6.85563        7.78756
H         -8.91482       -8.80569        8.15279
H         -7.68194       -9.18405        6.98990
H         -7.72784      -11.04845        8.41257
H         -6.27284      -10.25491        8.85247
H         -7.18752      -10.64994       10.96731
H         -7.61331       -9.00016       10.72706
H         -9.53231      -10.22152       11.56593
H         -9.89716       -9.59894        9.96547
H        -10.73476      -11.87439       10.15547
H         -9.43318      -11.95313        8.98541
H         -7.10710      -14.45370       12.21160
H         -6.02717      -13.08302       11.98104
H         -7.10597      -12.95009       14.16995
H         -7.47293      -11.54951       13.18690
H         -9.38987      -12.47397       14.55802
H         -9.76327      -12.16204       12.92570
H        -10.69802      -14.30533       13.24316
H         -9.27043      -14.68107       12.37545
H         -9.29767      -16.21827       14.19196
H         -8.00917      -15.10295       14.54105
H         -9.35208      -15.47193       16.56596
H         -9.44772      -13.80823       16.11109
H        -11.69689      -14.54899       16.66957
H        -11.68024      -14.16501       14.99585
H        -12.84112      -16.29192       15.24800
H        -11.38525      -16.59756       14.36958
H        -11.62512      -18.31298       16.10086
H        -10.20738      -17.38501       16.43603
H        -11.41757      -17.64980       18.53062
H        -11.44778      -15.97769       18.12329
H        -13.69745      -16.57505       18.79990
H        -13.76129      -16.20399       17.11647
H        -15.02719      -18.25233       17.47142
H        -13.64951      -18.64199       16.50314
H        -13.85152      -20.34788       18.22742
H        -12.38860      -19.47633       18.51250
H        -13.50046      -19.72907       20.65266
H        -13.51170      -18.04681       20.26231
H        -15.72507      -18.62666       21.07543
H        -15.87075      -18.19496       19.40487
H        -17.19388      -20.20123       19.78965
H        -15.89435      -20.59943       18.71321
H        -16.05706      -22.37731       20.34876
H        -14.55030      -21.56183       20.60347
H        -15.54209      -21.94178       22.77328
H        -15.53163      -20.22843       22.49360
H        -17.67028      -20.88443       23.46637
H        -17.93088      -20.23633       21.86441
H        -19.32546      -22.20871       22.20238
H        -18.17248      -22.53738       20.92638
H        -17.86408      -23.42761       23.84322
H        -18.37749      -24.45791       22.49255
H        -16.73419      -23.82050       22.53341
