31

C          1.09878        0.01851        0.25193
C          0.78001        1.49920        0.10907
C          1.20290        2.08999       -1.23941
C          0.54821        1.45763       -2.47295
C         -0.98271        1.50380       -2.49719
C         -1.59255        2.90792       -2.56851
C         -1.26814        3.71258       -3.83419
C         -1.59215        3.02499       -5.15848
C         -3.07503        2.77813       -5.36074
C         -3.81582        3.69380       -6.29939
O         -3.67069        1.89324       -4.74494
H          0.53239       -0.58679       -0.46179
H          0.83789       -0.32687        1.25756
H          2.16576       -0.16972        0.09620
H         -0.28965        1.66165        0.27951
H          1.30325        2.04436        0.90400
H          0.99914        3.16701       -1.22955
H          2.29121        1.99008       -1.34001
H          0.94582        1.94783       -3.36933
H          0.86371        0.41010       -2.54811
H         -1.33486        0.90775       -3.34650
H         -1.37890        0.99731       -1.60974
H         -2.68121        2.81529       -2.47636
H         -1.27505        3.49075       -1.69563
H         -1.81224        4.66405       -3.78171
H         -0.20204        3.96994       -3.82919
H         -1.22990        3.65171       -5.98148
H         -1.06910        2.06909       -5.26238
H         -4.65885        3.15212       -6.73868
H         -4.17995        4.56539       -5.75160
H         -3.16358        4.01289       -7.11605
