50

O          0.96106       -0.02192       -0.15434
C          0.36402       -1.15700       -0.81667
C          0.81024       -1.04334       -2.31040
C          2.32885       -1.01717       -2.61406
N          3.05216       -2.27036       -2.37119
C          2.63098       -3.34968       -3.27715
C          3.26466       -4.66978       -2.84190
C          4.78267       -4.57947       -2.85659
C          5.25893       -3.35678       -2.07742
C          4.50926       -2.08246       -2.48207
C          0.78746       -2.46068       -0.12209
C          0.46469       -3.71445       -0.67574
C          0.79710       -4.91208       -0.03650
C          1.50285       -4.88861        1.15693
C          1.85464       -3.66611        1.72190
C          1.48510       -2.46810        1.09836
C         -1.18433       -0.91014       -0.73809
C         -2.12626       -2.00860       -1.24280
C         -3.49768       -1.53827       -0.78615
C         -3.25050       -0.87218        0.56460
C         -1.74202       -0.61880        0.66269
H          1.90968       -0.21835       -0.07020
H          0.31019       -1.79688       -2.92577
H          0.44107       -0.07565       -2.68322
H          2.46613       -0.71045       -3.65991
H          2.78011       -0.21763       -2.01277
H          2.90510       -3.12048       -4.31509
H          1.54764       -3.48612       -3.26660
H          2.92562       -5.48019       -3.49589
H          2.93703       -4.92465       -1.82848
H          5.21339       -5.49031       -2.42583
H          5.13076       -4.51565       -3.89397
H          5.11567       -3.53404       -1.00385
H          6.33469       -3.22097       -2.23689
H          4.83960       -1.27287       -1.82020
H          4.78824       -1.79823       -3.50565
H         -0.05990       -3.77843       -1.62468
H          0.51812       -5.86054       -0.48915
H          1.78146       -5.81791        1.64522
H          2.41167       -3.64165        2.65360
H          1.75175       -1.53875        1.59658
H         -1.39412       -0.00441       -1.32925
H         -2.07801       -2.15032       -2.32594
H         -1.94314       -2.96928       -0.75530
H         -4.20828       -2.36798       -0.70988
H         -3.90546       -0.81317       -1.49898
H         -3.57542       -1.52137        1.38535
H         -3.82048        0.05966        0.64029
H         -1.30882       -1.28399        1.41666
H         -1.53652        0.41165        0.97152
