86

C          0.89233        0.04333        0.02052
C          0.54051       -0.68661       -1.24628
C          0.05361        0.04752       -2.33560
C         -0.26784       -0.55999       -3.55594
N         -0.75616        0.29006       -4.56828
C         -1.03603       -0.22214       -5.72655
C         -1.59804        0.63900       -6.82488
O         -1.93044        1.79832       -6.65258
N         -1.72342       -0.01371       -8.01538
C         -1.50252       -1.33864       -8.23175
O         -1.74239       -1.81029       -9.33903
N         -1.06223       -2.13352       -7.21389
C         -0.82836       -1.68160       -6.01711
N         -0.42065       -2.51904       -4.98637
C         -0.39821       -3.96928       -5.21662
C         -1.84443       -4.55609       -5.34058
O         -2.36780       -4.41895       -6.66100
C         -1.77724       -6.04583       -4.97244
O         -1.81145       -6.09291       -3.55200
C         -2.85442       -7.04954       -5.49386
O         -3.25320       -6.76666       -6.83909
C         -2.40648       -8.55585       -5.53774
O         -1.77791       -9.14617       -4.39412
P         -0.28047       -8.35039       -4.05164
O         -0.83979       -8.26518       -2.64467
O          0.42892       -9.81398       -4.28392
O          1.21698       -7.55461       -3.70915
P          1.71612       -7.93414       -2.09679
O          0.88056       -6.77416       -1.56667
O          1.08376       -9.41949       -2.07537
O          2.21527       -8.31368       -0.48443
C          3.61844       -8.67733       -0.46415
C          4.11927       -9.75333       -1.49022
O          5.46611      -10.18627       -1.18315
C          5.54229      -11.64956       -1.19429
N          5.81521      -12.08280        0.16581
C          6.99795      -11.70642        0.77186
N          6.75473      -11.07178        1.89890
C          5.40685      -11.27304        2.11440
C          4.47832      -10.67874        2.97860
N          4.78647       -9.54133        3.72271
N          3.19526      -11.10369        2.94684
C          2.86889      -12.09246        2.08670
N          3.64498      -12.65275        1.13537
C          4.88166      -12.13780        1.17069
C          4.29367      -12.13008       -1.91130
O          3.79945      -13.41384       -1.58852
C          3.28697      -11.01365       -1.71585
O          2.34018      -11.27135       -0.70118
C         -0.11250       -1.95705       -3.72624
C          0.36743       -2.68569       -2.62025
C          0.70190       -2.07193       -1.38979
C          1.22153       -2.95412       -0.28163
H          0.37208       -0.39472        0.87802
H          0.59859        1.09757       -0.02795
H          1.97381        0.00742        0.18719
H         -0.08530        1.12397       -2.24756
H         -2.12111        0.49799       -8.78803
H          0.15028       -4.17021       -6.14783
H          0.17476       -4.49685       -4.45154
H         -2.51451       -4.02838       -4.65118
H         -1.97058       -3.62079       -7.06775
H         -0.81686       -6.40169       -5.36076
H         -0.96836       -5.88558       -3.10346
H         -3.73925       -6.97764       -4.85076
H         -3.27288       -5.78913       -6.94261
H         -3.28856       -9.16617       -5.76580
H         -1.73073       -8.70163       -6.39078
H         -0.18292      -10.42086       -3.79344
H          1.32345       -9.91422       -2.88111
H          4.18016       -7.75222       -0.65602
H          3.87669       -8.96592        0.55707
H          4.21320       -9.25193       -2.46272
H          6.42707      -11.92958       -1.77962
H          7.95319      -11.77360        0.26651
H          3.96863       -8.94440        3.78054
H          5.63112       -9.09650        3.37341
H          1.83787      -12.43466        2.12120
H          4.53808      -12.14673       -2.98293
H          3.30750      -13.29977       -0.74117
H          2.74322      -10.96497       -2.65732
H          1.75702      -10.48422       -0.59806
H          0.51332       -3.76078       -2.66180
H          0.46830       -3.70229       -0.01355
H          2.13379       -3.46529       -0.60741
H          1.47019       -2.39904        0.62668
